  # total energy = -7879.05223944 
CRSYTAL
PRIMVEC
    15.3600000000000000    0.0000000000000000    0.0000000000000000
     0.0000000000000000   15.3600000000000000    0.0000000000000000
     0.2400000000000000    0.0000000000000000    17.440000000000000
PRESSURE
0.387138 0.287056 -5.64333 -0.081141 -0.845841 0.035298
PRIMCOORD
320 1
Pb       3.96362      3.95659      4.29881        -0.372414     -0.624419      0.376826
Pb       4.08660      3.79787     17.38049         0.261980     -0.055862     -0.449328
Pb       4.02784     15.25363      4.47249        -0.528892      0.477665     -0.722073
Pb       3.66960     15.35213      0.06850         0.390388      0.368846     -0.628786
Pb      15.31687      3.81644      4.22708         0.041481      0.225923      0.344980
Pb       0.09743      3.83900      0.08084        -0.108496      0.027760     -0.687809
Pb      15.33682      0.16576      4.46030         0.089515     -0.409458     -0.104979
Pb      15.07895     15.21503      0.10625         0.834265     -0.171261     -0.331133
Pb       4.13389      3.65148      8.59431        -0.455174      0.787895      0.411772
Pb       3.83779     15.32276      8.92670        -0.029566      0.134470     -0.512323
Pb      15.40427      3.81485      8.55988         0.094498      0.071954      0.100025
Pb      15.45367     15.32256      8.68672        -0.140037     -0.112116     -0.452312
Pb       3.92451      3.83360     13.08846        -0.243565      0.382066     -0.315767
Pb       4.14135      0.02055     13.15896        -0.902625     -0.372219     -0.135111
Pb       0.19177      3.85459     13.04846         0.036315      0.217042      0.024795
Pb       0.25946      0.23321     13.03003         0.082907     -0.702565     -0.212448
Pb       3.79449      7.66114      4.29124        -0.129137     -0.142392      0.073132
Pb       3.87239      7.64086     17.31659         0.703411      0.097378     -0.181092
Pb      15.37218      7.64612      4.34512         0.091747     -0.251937     -0.069960
Pb      15.52930      7.84783     17.32684         0.035399     -0.884861     -0.093724
Pb       3.86920      7.64470      8.71531         0.345772     -0.713963      0.296830
Pb      15.34956      7.67876      8.72962        -0.038320     -0.423744     -0.910256
Pb       4.06307      7.80530     12.83106        -0.497310     -1.040590      0.723145
Pb      15.27519      7.66218     13.12184         0.863702     -0.583189      0.071813
Pb       3.78215     11.45714      4.40106         0.391624     -0.110327     -0.379283
Pb       3.87203     11.65829      0.24313         0.125850     -0.707054     -1.490170
Pb       0.22859     11.58453      4.41452        -0.573130      0.119990     -0.516155
Pb       0.25826     11.43024     17.43400        -0.246618      0.556331     -0.818652
Pb       3.85016     11.52911      8.74309         0.142645     -0.157232      0.226558
Pb      15.39357     11.35723      8.63025        -0.166683      0.772623      0.017956
Pb       4.02714     11.45433     13.08760        -0.208713      0.077767     -0.203601
Pb       0.33201     11.53910     12.94669        -0.452376      0.335443      0.891615
Pb       7.67210      3.87061      4.16493         0.110591     -0.389777      0.114689
Pb       7.81763      3.99551      0.00933        -0.414780     -0.468140     -0.139531
Pb       7.74271      0.17326      4.28316        -0.022143     -0.340827     -0.408727
Pb       7.77524     15.23411     17.29800         0.493652      0.230700     -0.055578
Pb       7.72442      3.84562      8.66222         0.189254      0.320393     -0.085489
Pb       7.87349     15.35480      8.67723        -0.052483      0.116176      0.426363
Pb       7.85451      3.52284     13.15218         0.356003      0.981155      0.559672
Pb       7.81093     15.27023     13.05816         0.275147     -0.198686     -0.003937
Pb       7.69793      7.81082      4.15742        -0.163247     -0.571666      0.781744
Pb       7.81134      7.59207     17.42377         0.112353      0.593069      0.135808
Pb       7.86509      7.64270      8.81332        -0.154880     -0.225497     -0.469311
Pb       7.82154      7.59322     13.09520         0.192477      0.187946     -0.442757
Pb       7.56279     11.48483      4.21555        -0.060048      0.078402      0.117630
Pb       7.83228     11.43161     17.41522         0.226294     -0.413418     -0.191441
Pb       7.83026     11.59293      8.77424         0.309287     -0.237621      0.311002
Pb       7.85566     11.41350     13.04070         0.196742      0.057206      0.053108
Pb      11.52334      3.84507      4.23530         0.159937     -0.513014     -0.349125
Pb      11.75006      3.82430     17.39170         0.042860     -0.109525     -0.021649
Pb      11.50041     15.32247      4.36665         0.382164      0.356553      0.025049
Pb      11.77761     15.13561     17.26572        -0.135978      0.063531      0.106104
Pb      11.53009      3.79052      8.61753        -0.032126      0.369002      0.381076
Pb      11.49255     15.20897      8.74089         0.587337      0.594609     -0.337351
Pb      11.75216      3.92785     13.15392         0.096124     -0.037227     -0.259282
Pb      11.75025     15.35310     13.05181         0.010039      0.060879      0.437346
Pb      11.50945      7.70495      4.47763         0.454059      0.083188     -0.687205
Pb      11.87567      7.69985     17.37667        -0.297018      0.053697      0.015258
Pb      11.57945      7.60707      8.55366        -0.094845     -0.048564      0.359230
Pb      11.59160      7.56047     13.16315         0.444501     -0.062635     -0.287227
Pb      11.37045     11.56021      4.26741         0.764217     -0.281836      0.376613
Pb      11.74655     11.34996     17.43049         0.018363      0.552623     -0.174985
Pb      11.66929     11.49213      8.56449        -0.346068     -0.408027      0.816851
Pb      11.72212     11.66374     12.98898        -0.159937     -0.477296      0.294047
Ti       1.96666      1.92699      2.36497         0.397515     -0.756273     -0.414462
Ti       2.13766      1.89398     15.41127         0.754576      0.324435     -0.779983
Ti       2.01853     13.48861      2.30770        -1.142206      0.566290      0.052485
Ti       2.25900     13.43570     15.44454        -0.841799     -0.732588     -1.630504
Ti      13.43229      1.88484      2.24407        -0.152647     -0.041268      0.292983
Ti      13.72597      1.87739     15.43832        -0.517930     -0.153136     -0.238108
Ti      13.50327     13.45475      2.40046        -0.000065     -0.321751     -0.997320
Ti      13.81297     13.35632     15.27388        -0.357544      0.281999     -1.078939
Ti       2.04613      1.90664      6.65472        -0.409022     -0.122966     -1.497191
Ti       2.10322     13.44108      6.70824        -1.658131      0.834067     -0.403487
Ti      13.45530      1.87462      6.70815         0.052999     -0.860811     -0.898987
Ti      13.53361     13.37710      6.61409         0.951820      1.378508     -0.333864
Ti       2.04704      1.96772     10.89663         0.134985     -0.838205     -0.045847
Ti       1.97806     13.43079     11.03211         1.223249      0.893512     -1.247139
Ti      13.52351      1.98249     11.02940         1.031716      0.481063     -1.854278
Ti      13.57928     13.47643     10.98650         0.294923     -0.044956     -0.875397
Ti       1.90297      5.74191      2.23918         0.191691      0.221641      0.294583
Ti       2.11827      5.72414     15.33139         0.129029      0.221386     -1.481778
Ti      13.42705      5.82634      2.24755         0.921359     -0.475043     -0.607222
Ti      13.70785      5.69144     15.52632         0.315734      0.609325     -1.342121
Ti       2.02572      5.71571      6.65534        -0.495275      0.392981     -1.150663
Ti      13.51879      5.64647      6.56843        -0.220375      1.962728     -0.344015
Ti       1.98902      5.71938     10.96106         1.601513      0.064067     -1.266710
Ti      13.65772      5.77858     10.95416        -1.560239     -0.888469     -0.083776
Ti       1.87841      9.59669      2.18279         0.284871     -0.313665      0.809396
Ti       2.15046      9.59585     15.31504         0.445406     -0.093637     -1.009099
Ti      13.44540      9.58304      2.28815        -0.033848      0.137938     -0.511340
Ti      13.61589      9.64283     15.23346         0.166813     -0.418987      1.654750
Ti       2.03757      9.56956      6.71679        -0.481854     -0.550122     -0.609984
Ti      13.50120      9.54678      6.59419        -0.312622     -0.766739      0.048809
Ti       1.98845      9.52193     11.00621         0.852616      0.143109      0.551768
Ti      13.60129      9.61323     11.07091        -0.688646      0.057916     -1.825688
Ti       5.73529      1.86362      2.17895         1.118195      0.592085     -0.315206
Ti       6.03564      1.90528     15.41314        -1.334001      0.406379      1.067567
Ti       5.80829     13.37597      2.18161        -0.363963      0.547460      0.357001
Ti       6.03931     13.34297     15.44373        -1.069038     -1.008028     -0.786720
Ti       5.88658      1.79649      6.58737        -0.439578      1.104994     -0.584533
Ti       5.85867     13.45936      6.81916         0.673003      0.130453     -1.382457
Ti       5.85948      1.90577     11.11906         0.071870     -0.773045     -1.129285
Ti       5.80193     13.33898     11.09462         1.186706      0.380110     -0.201771
Ti       5.80086      5.73767      2.24232        -0.279586      0.211978     -0.305907
Ti       5.99742      5.74015     15.28754        -0.635685     -0.348915     -0.362331
Ti       5.84716      5.76305      6.66125         1.022570     -0.265192     -0.313987
Ti       5.97220      5.61974     11.15886        -1.324561      0.997483     -2.272248
Ti       5.62526      9.54959      2.32072         1.125956      0.730186     -0.596646
Ti       5.89823      9.50580     15.28925        -0.296512      1.453260      0.081810
Ti       5.91416      9.62399      6.82674        -0.376294     -0.554578     -0.646114
Ti       5.99767      9.54732     10.98796         0.137799     -0.376901     -0.649324
Ti       9.64309      1.82170      2.09256        -0.396746      0.613327      0.050538
Ti       9.83689      1.81911     15.49150         0.557146      0.151154     -1.078783
Ti       9.63974     13.43270      2.26736         0.191871     -0.316225     -1.326547
Ti       9.90737     13.29194     15.31185        -0.607465     -0.042324     -0.633523
Ti       9.64702      1.92835      6.54667         0.993489     -0.327754     -0.451083
Ti       9.72857     13.41898      6.66635        -0.103353      0.505743     -0.334131
Ti       9.81167      1.89362     11.14435        -0.768290      0.314351     -1.231173
Ti       9.69031     13.40505     11.14563        -0.091534     -0.512103     -0.572850
Ti       9.65821      5.79007      2.37815        -0.237815     -0.238861     -1.627070
Ti       9.82802      5.79978     15.45647         0.339807     -0.526160     -0.742913
Ti       9.64751      5.70582      6.44780         0.383391      0.266942      0.498858
Ti       9.71459      5.63115     11.11948         0.997835      0.198176     -0.295932
Ti       9.66531      9.62823      2.31482        -0.736314     -0.876493     -0.640843
Ti       9.73556      9.54758     15.41480        -0.053382      1.116744     -1.385399
Ti       9.66120      9.56227      6.59347         0.249120     -0.214945     -0.214074
Ti       9.86755      9.49602     11.12904        -0.508324      0.531784     -1.756081
O       2.07214      1.87590      0.50464        -0.306937      0.202703      1.542155
O       2.07185      2.07469     13.55344         0.037006     -0.594143      1.747032
O       2.01162     13.51355      0.48166        -0.358715     -0.280673      0.860480
O       2.19723     13.38062     13.57372        -0.058785     -0.114923      1.551402
O      13.56663      1.76651      0.45709        -0.322967      0.244201      0.591755
O      13.73978      1.82753     13.63656         0.076343      0.281164      0.916313
O      13.43426     13.49649      0.45020         0.013399     -0.067398      2.364606
O      13.84089     13.40543     13.43261        -0.461667      0.070070      1.499160
O       2.06881      1.93975      4.79926        -0.166414     -0.249462      1.379207
O       2.15487     13.46635      4.85401        -0.147089     -0.412414      1.325386
O      13.39502      1.73381      4.84322         0.161475      0.882914      1.525501
O      13.65664     13.48208      4.78435        -0.702223     -0.479343      1.382902
O       2.04661      1.82861      9.08271         0.133185      0.410791      0.943370
O       1.95360     13.51427      9.15952         0.434639     -0.299344      1.317557
O      13.57679      2.09573      9.13793        -0.205129     -0.384701      2.184449
O      13.61040     13.51104      9.10902        -0.219182     -0.276875      2.329840
O       2.01095      5.75678      0.41471        -0.304675     -0.276085      1.797273
O       1.96504      5.66723     13.45286         0.431332     -0.157119      1.933581
O      13.49311      5.77232      0.39044        -0.094156      0.079518      1.478366
O      13.66183      5.76392     13.64498         0.330281     -0.054984      1.490204
O       2.07344      5.86750      4.72352        -0.029634     -0.347223      2.235604
O      13.47768      5.74075      4.76896        -0.244539     -0.118037      0.625114
O       1.96604      5.73916      9.09444         0.038833      0.029020      1.615452
O      13.61928      5.66843      9.16340         0.235439      0.260198      0.752773
O       1.98283      9.55703      0.40289        -0.401407      0.136610      0.946660
O       2.19430      9.64001     13.45565        -0.226145     -0.111506      1.347948
O      13.43206      9.49821      0.35192         0.187847      0.321242      2.643768
O      13.65219      9.46392     13.48484        -0.066982      0.504224      0.242778
O       2.05671      9.63761      4.88983         0.199995     -0.145495      1.254271
O      13.36713      9.47057      4.80261         0.350569      0.368145      1.130779
O       1.91715      9.61561      9.22231        -0.052949     -0.072195      0.402990
O      13.59953      9.61493      9.07351         0.110033     -0.137498      2.591790
O       5.72848      1.90627      0.38040         0.164594     -0.258322      0.333287
O       5.86623      1.94382     13.64163         0.429457     -0.265923     -0.033484
O       5.87992     13.25723      0.38673        -0.637858      0.593214      0.689528
O       5.79519     13.35445     13.65919         0.383825     -0.008881      0.018281
O       5.81684      1.84757      4.75792         0.239449     -0.258111      1.638354
O       5.85266     13.49098      4.95930        -0.215897     -0.163283      1.708184
O       5.86298      1.88977      9.28679         0.038894      0.163301      1.167505
O       6.01330     13.48572      9.32662        -0.382698     -0.215015      0.222780
O       5.86799      5.87850      0.43036        -0.284304     -0.366538      1.425713
O       6.10762      5.65740     13.47329        -0.309933      0.361437      1.012475
O       5.89408      5.58464      4.83142        -0.494851      0.678834      1.450717
O       6.01624      5.60243      9.20235         0.132866     -0.266801      1.787867
O       5.61385      9.61637      0.57877         0.065475     -0.196647     -0.088203
O       5.84996      9.55779     13.45554         0.418254     -0.154859      1.229344
O       5.65840      9.72242      4.95928         0.683233     -0.142323      2.119561
O       6.06348      9.66883      9.17564        -0.287323     -0.294122      0.743611
O       9.67244      1.78677      0.28726        -0.388159      0.187181      1.067898
O       9.78090      1.92688     13.65879         0.192406     -0.201593      1.122009
O       9.86688     13.33164      0.46841        -0.710006      0.295340      1.421340
O       9.74660     13.17687     13.45983         0.268740      0.508741      1.641961
O       9.73656      1.76233      4.72838        -0.215350      0.267603      1.345722
O       9.70355     13.60874      4.88521        -0.312117     -0.764256      0.296850
O       9.72942      2.03319      9.29996         0.179812     -0.547280      1.897765
O       9.74139     13.51484      9.32477        -0.014065      0.008532      0.801726
O       9.55453      5.77911      0.47447         0.098518     -0.064988      1.576285
O       9.75906      5.80748     13.61557         0.383925     -0.046870      1.463846
O       9.68433      5.75626      4.64268         0.065769     -0.272670      0.266543
O       9.72529      5.53017      9.33667        -0.284843      0.519861      0.872592
O       9.69425      9.67047      0.52799        -0.093704     -0.373390      0.634363
O       9.68896      9.59250     13.54797         0.405299      0.003123      1.978447
O       9.66978      9.56436      4.74170        -0.055180      0.131347      1.645511
O       9.86305      9.33310      9.25267        -0.204836      0.574642      1.748287
O       3.97644      1.95979      2.64781        -1.897214      0.233772      0.022963
O       4.12014      1.95299     15.75922        -0.518284      0.018730      0.081908
O       3.84166     13.35157      2.54661         1.208790      0.484719      0.168584
O       4.07358     13.34063     15.86963        -0.171851     -0.239070      0.236956
O      15.36991      1.85300      2.76931         0.429963      0.266412     -0.601323
O       0.33913      1.89929     15.89712        -1.060999     -0.193395     -0.425525
O      15.35221     13.41875      2.71302         0.714914      0.036916     -0.329195
O       0.26822     13.38921     15.90419         0.293562     -0.194985     -0.424665
O       3.93124      1.81117      7.00453         0.956116      0.305881     -0.016238
O       3.94916     13.50296      7.24338         0.891660     -0.455801     -0.480146
O      15.42650      1.85092      6.99678         0.119313      0.388176     -0.191191
O       0.13556     13.36819      7.02192        -0.438719      0.235723     -0.344819
O       3.97880      1.85716     11.43354         0.242638      0.533070     -0.165355
O       3.95742     13.39990     11.34263         0.453802     -0.239013     -0.023968
O       0.20082      1.91238     11.35195        -0.770099     -0.103981     -0.056506
O       0.20808     13.46141     11.38953        -1.505836      0.358674     -0.117458
O       3.87336      5.61433      2.71535        -0.121593      0.952422     -0.903556
O       4.12635      5.69230     15.60349        -0.606484      0.504822      0.133754
O      15.31568      5.79259      2.77527         1.034847     -0.333866     -0.785729
O       0.30977      5.67983     15.87212        -1.164319      0.013013     -0.244067
O       4.02972      5.76925      7.08832        -0.668828     -0.037023     -0.486923
O       0.09740      5.79761      6.86606         0.191835     -0.289135      0.167268
O       4.03268      5.68375     11.34521        -0.166756     -0.253040      0.198757
O       0.16444      5.73528     11.35514        -0.196514      0.048005      0.030589
O       3.80663      9.54964      2.73577        -1.223960      0.349643     -0.106583
O       4.02629      9.47193     15.73937         0.116840      0.087141     -0.379281
O      15.38732      9.60565      2.72180         0.100462     -0.004877     -0.553849
O       0.23638      9.55215     15.71303        -0.829965      0.219424     -0.223104
O       3.88878      9.57023      7.35259         0.873922      0.549531     -1.069352
O      15.44161      9.52294      6.93389        -0.064028      0.552342      0.075459
O       4.06625      9.56123     11.37332        -0.973591      0.375336     -0.852025
O      15.46316      9.56707     11.50635         0.778410     -0.092343     -0.642175
O       7.73012      1.89820      2.61308         0.430563     -0.216517     -0.255146
O       7.92833      1.93485     15.73450        -0.276851     -0.397318      0.078686
O       7.60211     13.26748      2.53989         1.668261      0.497663      0.261860
O       7.91926     13.23883     15.74299         0.374489      0.541329      0.000635
O       7.80409      1.84213      6.89365        -0.407738      0.098700      0.066175
O       7.93619     13.46864      7.23829        -1.640963     -0.169241     -0.464024
O       7.83264      1.89519     11.57326         0.347291     -0.779440     -0.546650
O       7.75590     13.36573     11.53910         0.734250      0.498058     -0.147346
O       7.66510      5.78066      2.75983         0.504304      0.122461     -0.691106
O       7.94670      5.80422     15.87391        -0.016452     -0.153105     -0.573059
O       7.88698      5.70570      7.06195        -1.364501     -0.127036     -0.189914
O       7.87820      5.83856     11.45734         0.349935     -0.271271     -0.179124
O       7.65701      9.62253      2.71073         0.213174      0.163867     -0.165511
O       7.81918      9.66077     15.85412         0.789802     -0.467227     -0.642619
O       7.86034      9.62374      7.14620        -0.880331      0.321097     -0.581258
O       7.94971      9.50263     11.40912        -0.681534     -0.081339     -0.095958
O      11.52325      1.91901      2.53568         0.076486     -0.283382     -0.031763
O      11.80862      1.87643     15.79579         0.212505     -0.160747     -0.266256
O      11.51601     13.45979      2.86129         0.276473     -0.419140     -0.806901
O      11.76507     13.36273     15.57254         0.220089      0.098373     -0.125281
O      11.59250      2.00282      7.15211        -0.345952     -0.620842     -0.837432
O      11.65104     13.46070      7.10143        -0.205477      0.087692     -0.283544
O      11.70197      2.04896     11.61051        -0.091206     -0.588553     -0.589845
O      11.65613     13.43117     11.49919         1.044276      0.160284     -0.539000
O      11.61705      5.80101      2.61114        -1.481788     -0.266235      0.114724
O      11.79941      5.79951     15.82824        -0.843023     -0.207315     -0.185524
O      11.57982      5.73457      6.99151        -0.482755      0.024585     -0.476895
O      11.77065      5.67813     11.45397        -0.751963      0.175073      0.239201
O      11.50911      9.47244      2.73836         0.937717      0.453746     -0.429134
O      11.76301      9.59232     15.80468         0.099358     -0.448767     -0.770074
O      11.57256      9.52097      7.10124         0.030531      0.045688     -0.767998
O      11.78725      9.63275     11.57514        -0.148271      0.063928     -0.506118
O       1.81628      3.84184      2.74356         0.468832     -0.110217     -0.814580
O       2.14763      3.87218     15.85304         0.343656     -1.029497     -0.100698
O       2.04201      0.00319      2.80941        -0.057548      0.104875     -0.674709
O       2.30337     15.31387     15.68222        -0.307020      0.678814      0.039423
O      13.44260      3.81756      2.66867         0.185144     -0.136000     -0.334477
O      13.67557      3.79153     15.85613         0.247607     -0.380904     -0.188353
O      13.49614      0.00496      2.81817        -0.248074     -0.257628     -1.034336
O      13.68606     15.20281     15.74064         0.323061      1.502192     -0.045734
O       2.01904      3.85332      6.96428         0.280441     -0.309608     -0.039098
O       2.04804      0.00576      7.08470        -0.136365     -0.586900     -0.290211
O      13.50265      3.88739      7.00056         0.359314     -1.543845     -0.182751
O      13.45491     15.34541      7.07443         0.328856     -0.036591     -0.241361
O       2.06854      3.80815     11.34301         0.089244      0.128977     -0.134456
O       2.12306      0.01530     11.36116        -0.077325     -0.019088     -0.043655
O      13.65864      3.84379     11.55350         0.008810     -0.307533     -0.490239
O      13.50459      0.08705     11.42835         0.429877     -0.607771     -0.423111
O       1.92711      7.66933      2.61232         0.247217      0.062698     -0.196186
O       2.08070      7.61827     15.74023         0.282369      0.249920     -0.113576
O      13.49858      7.67490      2.78084        -0.117830      0.379359     -0.765213
O      13.70357      7.62386     15.80865         0.171856      0.855434     -0.586574
O       1.99371      7.63166      7.12321         0.559877      0.747308     -0.371365
O      13.46444      7.61803      7.06475         0.418421      0.661391     -0.416218
O       2.13269      7.61857     11.34326        -0.385967      0.883351     -0.415221
O      13.63009      7.64596     11.38703         0.036995      0.504644     -0.331209
O       1.94388     11.55702      2.74119        -0.043021     -0.761977     -0.423283
O       2.11662     11.39350     15.82900         0.138276      0.998225     -0.097383
O      13.47847     11.46640      2.62606        -0.498539     -0.063641     -0.036623
O      13.64284     11.53101     15.76155         0.481085     -1.166932     -0.451687
O       2.02522     11.53373      7.07568         0.468890     -0.666270     -0.187365
O      13.42193     11.51333      7.03479         0.645103     -0.657619     -0.661481
O       2.02873     11.50322     11.42064         0.433631     -0.421559     -0.740706
O      13.68730     11.59672     11.30822        -0.200915     -0.730194     -0.133250
O       5.86873      3.85750      2.59880        -0.066756     -0.052293     -0.181699
O       5.99714      3.90720     15.79815         0.601119     -0.851777     -0.258855
O       5.85223      0.03943      2.62384        -0.334227     -1.850765     -0.226955
O       5.90564     15.21522     15.78853         0.822405      1.417877     -0.063677
O       5.87466      3.77465      7.06052         0.158438     -0.355495     -0.437433
O       5.92401      0.00502      7.18744        -0.053507     -0.471535     -0.439806
O       6.00276      3.77430     11.52034        -0.108466     -0.550246     -0.206714
O       5.91583     15.32346     11.63489        -0.014020     -0.042800     -0.612468
O       5.77994      7.72902      2.73913        -0.260263     -1.438903     -0.114295
O       5.99617      7.71020     15.72008         0.371322     -1.144570     -0.067076
O       5.90562      7.68449      7.22388         0.125366      0.439621     -0.889819
O       5.90877      7.58669     11.34197         0.437704      0.719335      0.068405
O       5.69186     11.51058      2.69011        -0.051481      0.131397      0.172830
O       5.91127     11.42228     15.87888        -0.147590     -0.068572     -0.353321
O       5.99185     11.61252      7.27582        -0.756613     -0.744926     -0.684760
O       5.98931     11.37469     11.45207        -0.306509      1.490084     -0.332609
O       9.58743      3.76613      2.60101         0.418998      0.653370     -0.273730
O       9.92197      3.83917     15.88171        -0.383916      0.306243     -0.403953
O       9.61507     15.27786      2.57128        -0.298926      0.549480     -0.114674
O       9.82220     15.20979     15.70483        -0.230437      0.491619     -0.041246
O       9.70292      3.83013      6.85804        -0.025540     -0.593615     -0.105492
O       9.71316      0.00601      7.13106         0.502664      0.479408     -0.229389
O       9.77325      3.78114     11.59248        -0.247767      0.358524     -0.116642
O       9.85100     15.33439     11.59039        -0.488343      0.443701     -0.454734
O       9.57941      7.63997      2.69698         0.048034      0.314087     -0.189953
O       9.78474      7.73631     15.81636         0.317865     -0.850753     -0.151641
O       9.58699      7.62350      6.94604         0.755552      0.516245     -0.227725
O       9.90703      7.69299     11.62015        -0.331902     -1.155951     -0.668474
O       9.62752     11.46871      2.67753         0.196283      1.047995      0.353519
O       9.90234     11.44869     15.91897        -0.275412     -0.020319     -0.679987
O       9.84800     11.55262      7.01293        -0.526290     -1.032389     -0.295470
O       9.75119     11.52183     11.38631         0.260123     -0.678137     -0.038569
