  # total energy = -7879.79608433 
CRSYTAL
PRIMVEC
    15.3600000000000000    0.0000000000000000    0.0000000000000000
     0.0000000000000000   15.3600000000000000    0.0000000000000000
     0.2400000000000000    0.0000000000000000    17.440000000000000
PRESSURE
0.997231 0.558133 -3.13868 -0.120841 -0.632067 0.112551
PRIMCOORD
320 1
Pb       3.95656      3.95826      4.30960        -0.591297     -0.526981     -0.107453
Pb       4.08271      3.80303     17.38622         0.040072     -0.173005     -0.772516
Pb       4.01765     15.26337      4.48089        -0.134280      0.268927     -0.662116
Pb       3.66053     15.35505      0.06771         0.146919      0.381133     -0.748984
Pb      15.31659      3.82198      4.23925         0.311184     -0.106639     -0.070059
Pb       0.09671      3.84038      0.08431        -0.309584     -0.564591     -0.897606
Pb      15.33585      0.17040      4.47210        -0.089832     -0.067955     -0.781650
Pb      15.08653     15.20019      0.10798         0.490795      0.512323     -0.532510
Pb       4.12594      3.67115      8.61365        -0.337925      0.767869      0.126537
Pb       3.84246     15.30923      8.91026         0.352489      0.308809     -0.453631
Pb      15.41819      3.81361      8.57186        -0.081704      0.036166     -0.030944
Pb      15.45003     15.31374      8.68500        -0.128790     -0.078380     -0.201756
Pb       3.93296      3.84226     13.09856        -0.189259      0.091516     -0.375849
Pb       4.13577      0.02051     13.16995        -0.546570     -0.165585     -0.180817
Pb       0.18541      3.86142     13.05230        -0.096132      0.056803     -0.101948
Pb       0.25209      0.22198     13.05249         0.031425     -0.423707     -0.377691
Pb       3.80302      7.65140      4.29579        -0.468722      0.039943      0.150925
Pb       3.87464      7.63814     17.32231         0.291756      0.379434     -0.445277
Pb      15.37430      7.63870      4.35101         0.510833      0.092962     -0.244280
Pb      15.52485      7.83659     17.32909         0.216262     -0.172392     -0.058317
Pb       3.87728      7.63326      8.71636         0.323421     -0.532969     -0.115566
Pb      15.34383      7.66571      8.72025         0.009601      0.022630     -0.552791
Pb       4.05757      7.78447     12.86606        -0.518312     -0.791895      0.220009
Pb      15.28728      7.65319     13.11723         0.377324     -0.468294     -0.071783
Pb       3.79605     11.45205      4.40540         0.260154     -0.047725     -0.144474
Pb       3.86367     11.66525      0.23352        -0.413697     -0.549063     -1.306190
Pb       0.21282     11.58833      4.43160        -0.285204     -0.269412     -0.607670
Pb       0.24733     11.44513     17.43157        -0.124752      0.029567     -0.877681
Pb       3.86239     11.52150      8.74059         0.030038     -0.151428      0.111410
Pb      15.38338     11.36031      8.63249         0.144893      0.571236      0.214259
Pb       4.03329     11.45554     13.08024        -0.062832      0.290845     -0.247812
Pb       0.32390     11.54003     12.96280        -0.380653      0.368908      0.357272
Pb       7.67885      3.87777      4.16736         0.258887     -0.193063      0.172713
Pb       7.81232      3.97910      0.01283        -0.208422     -0.409241     -0.267367
Pb       7.75080      0.16830      4.27807        -0.118375     -0.516986     -0.113156
Pb       7.78211     15.24706     17.31334         0.545655     -0.170531     -0.108813
Pb       7.73033      3.85071      8.67493        -0.018293     -0.144771      0.006496
Pb       7.86537     15.34876      8.68229        -0.440452      0.059596      0.166143
Pb       7.85894      3.53558     13.17511         0.220729      0.217548     -0.129426
Pb       7.82815     15.25983     13.06746        -0.279578      0.161531     -0.357272
Pb       7.68415      7.79943      4.17562         0.179603     -0.615898      0.808412
Pb       7.81041      7.59716     17.41593         0.219512      0.371988     -0.062650
Pb       7.85510      7.63324      8.81482        -0.070059      0.266529     -0.715751
Pb       7.81903      7.59059     13.09380         0.482752      0.054943     -0.490260
Pb       7.56640     11.48337      4.22178        -0.175191      0.408924      0.493801
Pb       7.84121     11.43050     17.42021         0.524328     -0.004435     -0.649781
Pb       7.83193     11.58544      8.77489         0.138673      0.158763      0.137592
Pb       7.86138     11.40381     13.04893        -0.200178      0.386785     -0.366677
Pb      11.51977      3.84180      4.24548        -0.002096     -0.585933     -0.582268
Pb      11.74930      3.81462     17.39664         0.114374     -0.118137     -0.275548
Pb      11.49431     15.32531      4.36428         0.347076      0.301648     -0.459393
Pb      11.75763     15.14067     17.28327         0.292318     -0.019605     -0.040448
Pb      11.52407      3.79189      8.62296         0.123228      0.275226      0.336194
Pb      11.50239     15.20409      8.73330         0.395381      0.465699      0.108848
Pb      11.75578      3.91417     13.15679        -0.221905     -0.132516     -0.280814
Pb      11.75534     15.35964     13.06154         0.174204      0.366534     -0.039872
Pb      11.51097      7.70931      4.46178         0.069756      0.225017     -0.721920
Pb      11.87174      7.70447     17.38170        -0.268256     -0.008722     -0.148612
Pb      11.58150      7.60569      8.57985        -0.096034      0.289567      0.033306
Pb      11.59007      7.56831     13.15833         0.220353     -0.199042     -0.249268
Pb      11.36895     11.56063      4.28799         0.713983     -0.055615      0.381169
Pb      11.75587     11.35016     17.43006         0.082890      0.718324     -0.630850
Pb      11.66253     11.48369      8.57871        -0.171980     -0.362823      0.318164
Pb      11.72457     11.64910     13.00832         0.025917     -0.163185     -0.246504
Ti       1.97995      1.89247      2.35220        -0.214287      0.477575      0.149337
Ti       2.15929      1.88327     15.38209        -0.217698      0.338802     -0.307676
Ti       2.01711     13.50058      2.30543        -0.645016     -0.258109      0.226730
Ti       2.26379     13.42982     15.46861        -1.252111     -0.592631     -2.011484
Ti      13.40982      1.90839      2.24908         0.407334     -0.470671     -0.517042
Ti      13.70162      1.88941     15.43025         0.491884     -0.362543      0.396933
Ti      13.52797     13.40991      2.39551        -0.123367      0.167778     -1.015801
Ti      13.85613     13.39302     15.25296        -0.854200      0.061092      1.588619
Ti       2.01590      1.91277      6.62232         0.016640      0.327048     -0.484826
Ti       2.06167     13.47386      6.70816        -0.949392     -0.005399     -0.257876
Ti      13.42855      1.87138      6.64153         0.406546     -0.155901     -0.733395
Ti      13.55999     13.39702      6.60657         0.424231      0.564522     -0.184438
Ti       2.05360      1.97766     10.89110        -0.046719     -0.743673      0.870288
Ti       1.98952     13.41382     10.99714         0.377998      1.129190     -0.806025
Ti      13.54889      2.02012     10.99932         0.000913     -0.680213      0.078860
Ti      13.57211     13.50005     10.98292         0.223203      0.550838     -0.403198
Ti       1.90425      5.74352      2.26473         0.130678      0.083364      3.092179
Ti       2.12056      5.72949     15.33978         0.107040     -0.123458     -1.433592
Ti      13.46511      5.84886      2.25176        -0.022697     -0.996779     -0.618514
Ti      13.71038      5.72888     15.55601        -0.181638     -0.474530     -1.546891
Ti       1.99481      5.73001      6.63913         0.405652      0.338261     -0.854521
Ti      13.50131      5.69186      6.54387         0.111137      0.573374      0.675803
Ti       1.99948      5.75663     10.92540         1.081088     -0.365891     -0.347549
Ti      13.60995      5.78255     10.98653        -0.737511     -1.138649     -0.965331
Ti       1.88181      9.63056      2.20952        -0.398415     -0.722304      0.474834
Ti       2.15564      9.60313     15.23690        -0.495117      0.220370      1.409226
Ti      13.42735      9.58888      2.30181         0.741592      0.164980     -1.276625
Ti      13.59261      9.63818     15.26721         1.356643     -0.078454      1.327810
Ti       2.02774      9.58801      6.76440        -0.203007     -0.556311     -0.156322
Ti      13.55041      9.55159      6.53645        -0.737354     -0.138436      1.151763
Ti       1.98974      9.53954     11.01395         1.019452      0.087061     -1.588316
Ti      13.61676      9.61733     11.05761        -0.684172      0.244477     -1.961925
Ti       5.76892      1.86067      2.15984         0.076947     -0.003000      0.324436
Ti       6.06783      1.87469     15.43809        -1.934112      0.449498     -0.899414
Ti       5.82793     13.36676      2.18647        -0.554679      1.085369     -0.218103
Ti       6.01048     13.33483     15.46515        -0.270180     -0.769360     -1.412447
Ti       5.85439      1.86608      6.57359         0.371742     -0.110995      1.421417
Ti       5.81720     13.51302      6.85049         1.848346     -0.629998     -1.309022
Ti       5.78026      1.90404     11.10682         2.380302     -1.401763     -0.962409
Ti       5.79815     13.34882     11.11192         1.879284      0.786735     -1.491940
Ti       5.75817      5.76524      2.25495         0.068114      0.426909      0.294466
Ti       6.00811      5.72491     15.26153        -1.018266     -0.505836      1.126505
Ti       5.87825      5.76458      6.62577        -0.457850      0.495630      1.258235
Ti       5.98523      5.67024     11.12519        -1.556932     -0.369301     -2.417788
Ti       5.61780      9.55741      2.30456         0.666621      0.294582      1.068499
Ti       5.89957      9.49853     15.26223        -0.548812      1.042730      0.172094
Ti       5.87650      9.64559      6.86561        -0.061479     -0.549247     -0.401088
Ti       5.98483      9.53675     10.97841        -0.142976      0.591621     -0.862267
Ti       9.60695      1.82657      2.07942         0.835007      0.283736      0.829319
Ti       9.84839      1.77421     15.48128         0.837952      0.646181     -0.816824
Ti       9.68364     13.43072      2.27996        -0.665125      0.210909     -0.782659
Ti       9.90702     13.33887     15.27678        -0.491816     -0.814457     -0.050278
Ti       9.68513      1.91359      6.55581        -0.573831     -0.488488      0.081149
Ti       9.75352     13.46184      6.67800        -1.536398      0.162621      0.154306
Ti       9.78817      1.88274     11.16345        -0.386385      0.487341     -0.780829
Ti       9.66998     13.40226     11.16638         0.244593      0.271981     -1.304372
Ti       9.65655      5.76644      2.35626        -0.723723     -0.245968     -1.585735
Ti       9.81255      5.79114     15.49804         1.281989     -0.520496     -1.599043
Ti       9.62657      5.71233      6.44145         0.672928     -0.031150      0.531372
Ti       9.74721      5.66896     11.13568         1.102852      0.114660     -0.512459
Ti       9.65008      9.64020      2.32677        -0.550370     -0.691496     -0.309596
Ti       9.71869      9.55921     15.36265         0.798432      0.914000      0.246421
Ti       9.64431      9.59704      6.59218        -0.147719     -0.067627      0.528344
Ti       9.85323      9.50183     11.12967        -0.652516      0.095544     -2.010637
O       2.06411      1.94167      0.57095        -0.107393     -0.147006     -0.385378
O       2.07926      2.05537     13.57738         0.127949     -0.382972      0.386381
O       1.99595     13.45187      0.50267        -0.049776      0.067941      0.108020
O       2.19079     13.35771     13.63550        -0.072447     -0.208899      0.309544
O      13.55185      1.80173      0.41933        -0.173949      0.120373      1.382117
O      13.75006      1.81689     13.66216         0.061123      0.352405     -0.780105
O      13.45932     13.45011      0.46872         0.021445      0.028455      1.967765
O      13.84361     13.43287     13.52940        -0.207252     -0.088861     -0.811097
O       2.01463      1.99137      4.83944        -0.087078     -0.641695      0.149145
O       2.15520     13.44836      4.89025        -0.184815     -0.148558      0.327491
O      13.44647      1.78968      4.78186        -0.090387      0.549037      1.461516
O      13.52685     13.42712      4.80763         0.032800     -0.093834      0.546555
O       1.98128      1.91811      9.14174         0.293680     -0.034014     -0.816305
O       1.94740     13.43551      9.17760         0.634095      0.057134      0.600024
O      13.48246      2.07709      9.23843         0.232396     -0.133172     -0.168942
O      13.61421     13.50467      9.21211        -0.252203     -0.053240     -0.256338
O       1.99089      5.70835      0.58771        -0.068699     -0.050994     -2.684627
O       2.04488      5.61767     13.53537         0.034980      0.272945      0.588201
O      13.47401      5.76617      0.41209        -0.047093      0.067395      1.108353
O      13.69415      5.73613     13.68989         0.158495      0.216464      0.596009
O       2.03760      5.86649      4.80053         0.231431     -0.380450      0.820532
O      13.57449      5.76152      4.77343        -0.773090      0.048555     -0.248266
O       2.05554      5.73849      9.15195        -0.442748      0.070905      0.054099
O      13.60977      5.67844      9.19709         0.063088      0.263201      0.101022
O       1.94333      9.50553      0.43144        -0.098748      0.399572      0.738753
O       2.16531      9.64868     13.45576        -0.272182     -0.219660     -0.046022
O      13.45712      9.48340      0.33674        -0.133597      0.362275      2.621230
O      13.66238      9.52467     13.50717         0.089194      0.065762     -0.870531
O       1.97386      9.64341      4.95625         0.432123      0.046674      0.461306
O      13.44745      9.47306      4.77025        -0.045899      0.200747      0.173813
O       1.90350      9.59796      9.13714         0.020085      0.049760      1.400380
O      13.61454      9.59225      9.05848        -0.119863     -0.068575      2.894460
O       5.83928      1.88156      0.37785        -0.326943     -0.153284      0.428607
O       5.82712      1.85384     13.61583         0.748906      0.193866      1.013375
O       5.72622     13.32417      0.34640         0.271507      0.081347      0.500439
O       5.83728     13.32072     13.65316         0.227308      0.085952      0.194457
O       5.77153      1.82009      4.83346         0.117311     -0.137181     -1.241437
O       5.90145     13.45456      4.96969        -0.510645      0.242890      1.193190
O       5.91560      1.87196      9.29474        -0.223638      0.389354      0.289761
O       6.00768     13.49951      9.29069        -0.560063     -0.113916      0.941088
O       5.89420      5.86964      0.50050        -0.286112     -0.173819     -0.346534
O       6.02947      5.69084     13.52065         0.202068      0.157004     -1.100731
O       5.82156      5.60629      4.87713        -0.193710      0.466123     -0.247028
O       5.88806      5.59535      9.16924         1.050194     -0.230112      2.106763
O       5.59846      9.59817      0.60431         0.153353     -0.135486     -1.107944
O       5.87100      9.55457     13.46163         0.316631     -0.231702      0.643685
O       5.61569      9.71013      5.06661         0.576931      0.183911      0.162578
O       6.07195      9.63870      9.16544        -0.427487     -0.353617      1.128238
O       9.63676      1.78620      0.33381        -0.216606      0.052105     -0.889278
O       9.84480      1.87995     13.68837        -0.088316      0.049752      0.696342
O       9.83651     13.31835      0.54107        -0.381054      0.141606     -0.243161
O       9.76714     13.26792     13.48349         0.174558     -0.060566     -0.217304
O       9.70653      1.74178      4.80341         0.241362      0.072623     -0.793546
O       9.72057     13.61255      4.90930        -0.310102     -0.613080     -0.109835
O       9.78600      2.02430      9.36324        -0.092392     -0.371542      0.597613
O       9.71047     13.48070      9.32696         0.190549      0.310239      0.587224
O       9.56051      5.77355      0.47038        -0.207704      0.060987      0.791779
O       9.82541      5.81760     13.64341         0.018890      0.007188      0.929209
O       9.61433      5.72430      4.66299         0.432095     -0.064648     -0.223779
O       9.69826      5.58763      9.35805        -0.088790      0.300006     -0.277772
O       9.59261      9.67975      0.57224         0.253590     -0.218040     -0.252703
O       9.78002      9.61636     13.58713        -0.052065     -0.032686      0.054146
O       9.69502      9.63023      4.78910        -0.002757     -0.176806      0.200406
O       9.83003      9.34604      9.28747        -0.094466      0.492588      1.276090
O       3.91694      1.90449      2.63846         0.685590      0.218350     -0.087709
O       4.10783      1.94332     15.70944         0.085058      0.050883      0.802078
O       3.89816     13.36070      2.46289        -0.248438      0.446616      0.589375
O       4.04776     13.34168     15.77981         1.402555     -0.119302      0.873929
O      15.36811      1.87758      2.72365         0.298022      0.136957     -0.011343
O       0.31304      1.85950     15.83125         0.173910     -0.048372      0.013875
O      15.38622     13.40692      2.68449         0.166904      0.018373      0.030864
O       0.35391     13.37456     15.82410        -1.272116      0.048494      0.061282
O       3.93803      1.79514      6.97831         0.169170      0.227500      0.215366
O       3.97040     13.49052      7.18143        -0.303879     -0.244326     -0.032765
O      15.38482      1.81288      6.95173         0.386835      0.650427      0.129965
O       0.16426     13.34601      7.04256        -0.946424      0.727895     -0.426075
O       4.01635      1.86191     11.40179        -1.855084      0.717625      0.086111
O       4.00407     13.36141     11.29698        -0.972353     -0.302633      0.324344
O       0.21108      1.87615     11.34745        -0.816757      0.034347      0.091017
O       0.16996     13.56641     11.27105        -0.004880     -0.267435      0.684202
O       3.83132      5.64804      2.64326         0.657741      0.748486      0.046606
O       4.11853      5.72627     15.52376        -0.545606      0.222943      0.829462
O      15.34365      5.81157      2.68453         0.092000     -0.538118     -0.231479
O       0.25361      5.68030     15.76394         0.153664     -0.036722      0.411067
O       4.01349      5.81514      7.08389        -0.149578     -0.519819     -0.513795
O       0.12206      5.77144      6.78859        -0.504187     -0.247223      0.753149
O       4.01989      5.68406     11.23287         0.585121     -0.116864      0.925800
O      15.48888      5.72668     11.30090         0.967502      0.254463      0.517287
O       3.74453      9.60168      2.70927         1.035119      0.069296      0.103718
O       4.01087      9.47216     15.70074         0.501315     -0.076233     -0.304486
O      15.39316      9.66715      2.69538        -0.174080     -0.467623     -0.168886
O      15.53778      9.62739     15.74818         0.646033     -0.313960     -0.341514
O       3.91223      9.60200      7.30894         0.282025      0.419844     -0.574438
O      15.40017      9.51701      6.97472         0.390749      0.496947     -0.141491
O       4.03506      9.53524     11.38871        -0.184638      0.736946     -0.583455
O      15.48979      9.53259     11.41821         0.123430      0.237904      0.024893
O       7.76894      1.96846      2.50390        -1.353009     -0.658220      0.395737
O       7.95137      1.98430     15.72442        -0.162888     -0.746281      0.153452
O       7.60581     13.39787      2.49614         1.810931     -0.325661      0.404688
O       7.97605     13.18562     15.74329        -1.016591      0.724893      0.357896
O       7.78096      1.81509      6.76085         0.319756      0.205796      0.620541
O       7.85430     13.47573      7.23400         0.455635      0.015854     -0.541786
O       7.83672      1.81406     11.60145         0.919969     -0.058511     -0.114850
O       7.72354     13.39529     11.49696         1.464100      0.500974      0.344127
O       7.65280      5.77565      2.75847         0.591426      0.161457     -0.398438
O       7.96686      5.85922     15.78640        -1.039413     -0.362992      0.105979
O       7.86017      5.65401      6.91458        -0.966805     -0.005213      0.482341
O       7.91328      5.86958     11.42946        -1.547123     -0.275299      0.164474
O       7.70794      9.57376      2.69094        -0.474118      0.624932     -0.075521
O       7.83627      9.57513     15.80880         0.491795      0.097028     -0.346299
O       7.76449      9.50006      7.08140         0.970431      0.957748     -0.253199
O       7.90363      9.49442     11.39003        -0.073758     -0.235381      0.385890
O      11.56235      1.87514      2.51493        -0.484301     -0.004894      0.297637
O      11.83668      1.81786     15.78129        -1.338678      0.125090      0.090394
O      11.48620     13.45642      2.80846         1.621891     -0.388606     -0.154216
O      11.73954     13.35691     15.58778         1.435659      0.335001      0.030748
O      11.59098      2.03388      7.08613         0.516327     -0.968634     -0.378014
O      11.67531     13.46333      7.05506        -0.287706     -0.162562      0.050073
O      11.65535      2.05782     11.57162         0.672444     -0.359838     -0.114538
O      11.68328     13.41168     11.36794         0.038331     -0.114804      0.560962
O      11.52285      5.66111      2.53532         0.555108      0.595762      0.579454
O      11.75275      5.77300     15.74203         0.376476     -0.086503      0.605410
O      11.59106      5.72593      6.94577        -0.447346      0.254345     -0.419610
O      11.74508      5.70527     11.42711        -0.167328      0.153342      0.520224
O      11.54666      9.45787      2.69980        -0.076907      0.566641     -0.092389
O      11.83402      9.50958     15.72899        -1.841298      0.096638      0.146038
O      11.54820      9.60731      7.07445         0.748123     -0.542267     -0.615345
O      11.74192      9.55506     11.49966         0.615662      0.546449     -0.178750
O       1.89894      3.78779      2.67399        -0.086046      0.684834      0.088807
O       2.20549      3.85343     15.76890         0.021957     -0.167179      0.683435
O       1.99578      0.00291      2.71077         0.115559     -0.643812      0.035226
O       2.31760     15.35365     15.63153        -0.162135     -0.135371      0.562525
O      13.40955      3.84518      2.66150         0.521708      0.007970     -0.093485
O      13.76451      3.72054     15.81922        -0.420815      1.484488      0.302823
O      13.52502     15.35808      2.75424        -0.200164     -0.813501     -0.538771
O      13.69943     15.29610     15.69164         0.449187     -1.005434      0.453412
O       2.09967      3.82742      6.91891        -0.256758     -0.087581      0.355656
O       2.03459      0.00616      7.01813        -0.112722     -0.449512      0.210937
O      13.52739      3.86758      7.01279         0.299222     -0.619983     -0.385756
O      13.49725     15.35097      7.07039         0.072632     -0.135360     -0.278919
O       2.07840      3.83229     11.24651         0.071190      0.166058      0.502432
O       2.16742      0.01867     11.25464         0.064284     -0.570650      0.257632
O      13.69235      3.84344     11.44771        -0.202553      0.131907      0.287743
O      13.44816      0.08619     11.36619         0.570108     -0.264395      0.088964
O       1.94252      7.68354      2.63919         0.135911      0.095090      0.089644
O       2.05943      7.65595     15.75780         0.323531     -0.217373     -0.230515
O      13.50409      7.70486      2.68984        -0.298744     -0.715077     -0.145461
O      13.73142      7.61985     15.80608        -0.063126      0.414237     -0.449779
O       2.01057      7.65826      7.03190         0.330613      0.265943      0.177557
O      13.51810      7.65486      7.04705        -0.162110     -0.133302     -0.535566
O       2.17653      7.69832     11.20994        -0.445194     -0.688131      0.534758
O      13.70247      7.63971     11.33043        -0.341023      1.101258      0.183453
O       1.92261     11.53888      2.70881         0.257246      0.117099     -0.064983
O       2.16308     11.41315     15.79250         0.073198      0.298620     -0.004323
O      13.50612     11.42851      2.59603        -0.729867      1.026435      0.192431
O      13.64963     11.48278     15.72568         0.266569      0.616880     -0.269777
O       2.01078     11.54509      7.07495         0.489132     -0.477773     -0.124594
O      13.54486     11.52250      6.98915        -0.165159     -0.529821     -0.261524
O       2.06540     11.44970     11.35991        -0.053368      0.800499     -0.035839
O      13.69305     11.63023     11.30436        -0.081531     -2.066046      0.369772
O       5.87124      3.94966      2.64960        -0.515462     -2.037714     -0.317019
O       5.99965      3.83247     15.75930         0.523910      0.317473     -0.019216
O       5.85219     15.32675      2.56957        -0.351011      0.489096     -0.067580
O       5.95573     15.25567     15.67002         0.744192      0.682850      0.641552
O       5.94565      3.72866      7.03815        -0.451245      0.771427     -0.089362
O       5.97411      0.02443      7.19797        -0.657051     -0.485002     -0.411291
O       6.04255      3.68267     11.52049        -0.022027      2.553020     -0.020671
O       5.85611      0.01393     11.57559         0.257205     -1.320476     -0.082794
O       5.82144      7.71407      2.76903        -0.806964     -0.234089     -0.305253
O       5.95161      7.66173     15.65122         0.537750     -0.451697      0.288861
O       5.91087      7.70227      7.15349        -0.023978     -0.753949     -0.381156
O       5.87766      7.62500     11.32590         0.605694     -0.420797      0.255115
O       5.70292     11.54240      2.74245         0.241818     -1.079533     -0.160949
O       5.92547     11.41604     15.72312        -0.018095     -0.385855      0.398591
O       6.05955     11.62535      7.30936        -1.338218     -0.756823     -0.777049
O       6.06768     11.39996     11.42384        -0.768870      0.736224     -0.103912
O       9.62877      3.72815      2.48615         0.094503      0.960582      0.500909
O       9.92935      3.83182     15.84079        -0.485739     -0.020471      0.006788
O       9.65949     15.29136      2.50546        -0.532722      0.946932      0.528212
O       9.83063     15.16795     15.66969        -0.459837      1.797956      0.509006
O       9.75141      3.74284      6.74403        -0.315180      1.923671      0.553179
O       9.74118      0.02510      7.05533         0.553003     -0.458344      0.453465
O       9.79141      3.85079     11.58148        -0.575220     -0.630673      0.309929
O       9.89244     15.34062     11.61477        -0.645122      0.027852     -0.532185
O       9.59561      7.62123      2.65056         0.180050      0.727660      0.264782
O       9.88672      7.73465     15.69958        -0.186577     -0.163699      0.434049
O       9.60081      7.67936      6.92354         0.819170     -0.830723     -0.103069
O       9.88100      7.63814     11.48943        -0.113354      0.116835      0.411130
O       9.64123     11.54502      2.66730        -0.054564     -0.838366      0.580821
O       9.96256     11.52335     15.87639        -0.545706     -2.046293     -0.238773
O       9.81979     11.52867      6.97311        -0.610669     -0.029053      0.028072
O       9.74663     11.55124     11.32019         0.150083     -1.382203      0.651007
