  # total energy = -7879.91617618 
CRSYTAL
PRIMVEC
    15.3600000000000000    0.2300000000000000    0.0000000000000000
     0.0000000000000000   15.3600000000000000    0.0000000000000000
     0.0000000000000000    0.0000000000000000    17.440000000000000
PRESSURE
0.355373 0.465767 -3.1746 0.123013 0.17824 -1.59812
PRIMCOORD
320 1
Pb       3.83954      3.97426      4.16504         0.132560     -0.297703      0.287604
Pb       3.76950      3.90879      0.03846        -0.191324     -0.099318      0.174797
Pb       3.82597     15.31125      4.34966         0.299502     -0.368175     -0.657188
Pb       3.81882     15.39900      0.05720         0.005235     -0.147356      0.204750
Pb       0.16242      3.94150      4.40517        -0.561641      0.014313     -0.586113
Pb       0.05998      3.79059      0.11686         0.045742      0.241116     -0.277254
Pb      15.23583      0.27919      4.38994         0.195753     -0.403603     -0.212831
Pb      15.27620      0.23327      0.03047         0.245908     -0.283839     -0.286531
Pb       3.79843      3.77338      8.50061        -0.080983      0.148116     -0.032570
Pb       3.77672     15.34115      8.60632         0.418160     -0.036523     -0.148454
Pb       0.03758      3.85639      8.62378         0.122825     -0.354204     -0.362947
Pb       0.02870     15.17334      8.63168        -0.124050      0.661708     -0.180160
Pb       3.92784      3.81972     13.12113        -0.552015      0.163413      0.021094
Pb       3.70541      0.15366     13.16155         0.341408      0.354144     -0.207981
Pb      15.31455      4.00116     12.99333         0.039400     -0.116858      0.027923
Pb      15.26892      0.25933     13.00532         0.148610      0.600401      0.134026
Pb       3.87144      7.75544      4.32264         0.053942      0.166392     -0.065938
Pb       3.76394      7.69387     17.40900        -0.160403      0.052836     -0.300258
Pb      15.19684      7.85357      4.40322         0.192501      0.235581     -0.545285
Pb      15.30932      7.90636     17.38293        -0.368425      0.098262      0.019345
Pb       3.86239      7.61539      8.68981         0.141956     -0.016169     -0.581154
Pb      15.29990      7.82469      8.69832         0.096401      0.184600      0.137505
Pb       3.76640      7.56795     13.01036        -0.024878      0.147646      0.404491
Pb       0.00232      7.60427     13.04254        -0.011466      0.615638     -0.643752
Pb       3.87253     11.40582      4.25247         0.061470      0.504282     -0.025818
Pb       3.84609     11.54285     17.35531        -0.282758      0.293476      0.754727
Pb      15.34694     11.64033      4.35285        -0.567915      0.060380     -0.976643
Pb       0.01632     11.64752     17.40601        -0.276720     -0.390441     -0.085433
Pb       3.83707     11.42768      8.71365        -0.042954      0.658287     -0.167410
Pb       0.02347     11.47514      8.58843        -0.128253      0.161005      0.515695
Pb       3.77652     11.52623     13.05590         0.498884     -0.417952     -0.392853
Pb      15.30331     11.75312     12.96040         0.151126     -0.830779     -0.117646
Pb       7.63788      3.93767      4.28457         0.092444      0.283510     -0.152643
Pb       7.62223      4.03389     17.38492         0.521671     -0.017819      0.981438
Pb       7.68779     15.35795      4.30405        -0.146262      0.065129     -0.406618
Pb       7.78656      0.22521      0.02735        -0.390431     -0.624170      0.095592
Pb       7.56544      3.83391      8.63278         0.242588      0.250259     -0.215579
Pb       7.70899     15.34038      8.74427        -0.233550     -0.397329     -0.801919
Pb       7.64160      3.93288     12.99316         0.341342     -0.067319      0.322556
Pb       7.66317     15.38223     13.14649         0.055097      0.351499     -0.540114
Pb       7.67808      7.72664      4.33195         0.243233      0.399089      0.033805
Pb       7.64349      7.76265     17.43712         0.044599     -0.011630     -0.484576
Pb       7.68154      7.83980      8.80282         0.548868     -0.473832     -0.764333
Pb       7.68096      7.85406     13.06344        -0.181980      0.022372      0.212591
Pb       7.67665     11.64516      4.42186        -0.080634     -0.576599     -0.672788
Pb       7.55432     11.58679     17.36278        -0.049923      0.594644     -0.354915
Pb       7.61013     11.57717      8.84856        -0.061652      0.411973     -0.739453
Pb       7.65780     11.76460     13.22813        -0.288289     -0.655401     -0.791331
Pb      11.43372      4.11897      4.46919         0.236219     -0.056925     -0.547576
Pb      11.53711      4.05161      0.07200        -0.245018      0.188657     -0.597693
Pb      11.56257      0.20438      4.42509        -0.170527     -0.096472     -0.140228
Pb      11.46827      0.25973     17.42473         0.056688     -0.261683     -0.164292
Pb      11.44199      3.76330      8.70215        -0.279614      1.284922     -0.125235
Pb      11.48492     15.51744      8.66909        -0.049237     -0.227349     -0.287325
Pb      11.47311      4.01515     13.06359         0.054430     -0.118479     -0.241502
Pb      11.56345      0.28503     12.96506        -0.339279      0.222329     -0.011344
Pb      11.44577      7.85185      4.35251        -0.035927     -0.046228     -0.198268
Pb      11.48657      7.83757     17.37017         0.192561      0.355143     -0.363341
Pb      11.59723      7.78651      8.73807        -0.644203     -0.452453     -0.559367
Pb      11.46474      7.85726     13.07245         0.214050      0.034420     -0.110886
Pb      11.54363     11.53217      4.25636         0.402285      0.117227      0.000848
Pb      11.47399     11.76461     17.28283         0.471790     -0.448746     -0.340079
Pb      11.44403     11.67830      8.77278         0.085702      0.082462     -0.609189
Pb      11.54153     11.80458     12.97133         0.014886     -0.551867      0.114932
Ti       1.95496      1.89728      2.31150        -0.180296      0.196197     -0.615166
Ti       1.93235      1.83672     15.51164        -0.049095      0.979014     -0.517316
Ti       1.93681     13.44561      2.36975         0.369925     -0.515805      0.156002
Ti       1.87979     13.42265     15.34383        -0.335758      0.591449      1.576553
Ti      13.39898      2.11467      2.32611        -0.009657      0.938470      0.700352
Ti      13.43389      2.14295     15.45058         0.269274      0.327784     -1.134510
Ti      13.41022     13.69140      2.33563         0.636707     -1.085336      0.960003
Ti      13.37975     13.73213     15.22599         0.357072     -0.862895      1.732875
Ti       1.89118      1.89708      6.43691         0.121524      0.393138      0.315453
Ti       1.94583     13.44691      6.56998        -0.608926     -0.091061     -0.121717
Ti      13.35863      2.12009      6.61874         0.543802     -0.007100     -0.922279
Ti      13.42770     13.63958      6.69196         0.456676      0.144731     -1.176341
Ti       1.98551      1.87094     10.95646        -1.253695      1.737367     -0.324219
Ti       1.94989     13.48811     10.96157        -0.522354     -1.229416     -1.081315
Ti      13.41523      2.16537     10.92456         0.118355      0.396846      1.005577
Ti      13.48088     13.70524     11.03617         0.210153     -0.348803     -1.906982
Ti       1.95776      5.82836      2.33101        -0.484377      0.205767     -0.539626
Ti       1.79965      5.69176     15.38164         0.779908     -0.043042      0.048098
Ti      13.42509      5.94551      2.36492         0.021164      0.207172     -0.704855
Ti      13.37814      5.93100     15.30667         0.099090      0.408643     -0.088668
Ti       1.94865      5.75226      6.61823         0.104383      0.025752     -1.269174
Ti      13.41956      5.92067      6.74755        -1.364715      0.049124     -1.702772
Ti       1.88954      5.66424     10.97359        -0.373450      0.036643     -0.660044
Ti      13.36941      5.96335     10.98874        -0.181068     -0.238212     -0.914913
Ti       1.95181      9.57253      2.30173        -0.766028      0.763504     -0.542602
Ti       1.83960      9.60139     15.38693        -0.682641     -0.153917     -0.594744
Ti      13.40869      9.72679      2.14524         0.057996      0.602462      0.350515
Ti      13.40895      9.85125     15.31258        -0.118411     -0.246335      1.287056
Ti       1.92038      9.56920      6.71029         0.370796     -0.590597     -1.539546
Ti      13.43850      9.73387      6.73883        -0.975174      0.424288     -1.572778
Ti       1.92023      9.59160     11.03175        -1.386508     -0.159471      1.553091
Ti      13.33741      9.78159     10.98437         2.354498     -0.104931      0.190779
Ti       5.75162      2.00584      2.33825         0.798655     -0.368426     -0.418116
Ti       5.81861      2.00012     15.57226        -1.157982     -0.487410     -1.289662
Ti       5.76830     13.42859      2.28678        -0.526490      0.556172     -0.478619
Ti       5.60813     13.62538     15.32578         1.216184     -0.861925      0.861891
Ti       5.71640      1.88487      6.51622        -0.345276      0.536051      0.171752
Ti       5.71722     13.46982      6.63956         0.759413      0.076382     -0.509278
Ti       5.74476      1.95504     10.99736         0.236442     -0.337313     -0.733226
Ti       5.71663     13.53114     11.02870         0.111743     -0.139093     -2.024053
Ti       5.81421      5.87810      2.27457         0.023481     -0.318032     -0.703713
Ti       5.71473      5.83284     15.42562        -0.785177      0.550918     -0.339186
Ti       5.79270      5.78937      6.62484         0.351467      0.858479     -1.156678
Ti       5.79889      5.82366     11.03820        -0.233365      0.423782      0.247146
Ti       5.80549      9.67041      2.17704        -0.027922     -0.130102      1.273229
Ti       5.69557      9.72982     15.36038         0.310537     -0.346672     -1.552882
Ti       5.78137      9.64462      6.70300         0.048183     -0.835772     -1.788893
Ti       5.72108      9.64437     11.12583         0.722257      0.335098      1.176621
Ti       9.58932      2.06879      2.39084         0.058908     -0.067519      1.735705
Ti       9.60878      2.10752     15.40708         0.848361      0.019207     -0.336164
Ti       9.58387     13.51031      2.26651         0.333870      0.729454      0.773627
Ti       9.53457     13.60162     15.28716        -0.036073      1.088822     -0.485339
Ti       9.52803      2.00076      6.58903         0.690577      0.075398     -0.925068
Ti       9.70794     13.48701      6.54868        -0.874437      0.608511      1.942157
Ti       9.51881      2.06917     10.97517         0.490963     -0.045788      0.092398
Ti       9.64466     13.61398     11.05873        -0.324982      0.275490     -0.796482
Ti       9.57036      5.94153      2.30462        -0.173521      0.214307     -0.339088
Ti       9.51483      5.93075     15.29178         0.913455     -0.339627     -0.407871
Ti       9.54956      5.82568      6.74918         1.036061      1.418899      0.212605
Ti       9.59303      5.90843     11.09334        -0.478481     -0.306415     -1.041286
Ti       9.55928      9.81731      2.17888        -0.140709     -1.868932      0.867772
Ti       9.51246      9.79856     15.29209         1.828461     -0.392197      0.010876
Ti       9.59114      9.71435      6.62640         0.373606     -0.826615     -0.619279
Ti       9.58341      9.79112     11.09630        -0.816515      0.080781      0.298440
O       1.98532      1.99550      0.47351        -0.276576     -0.292392      0.885404
O       2.01581      1.83914     13.67837        -0.427289     -0.037963      0.754471
O       2.00856     13.32508      0.60882        -0.495495      0.380955     -0.461204
O       1.91806     13.47351     13.60471         0.257665      0.068552     -0.554210
O      13.20786      2.24530      0.52080         0.818745     -0.746662      1.030928
O      13.52297      2.05803     13.62600        -0.420306      0.317715      0.745721
O      13.54328     13.79725      0.59554        -0.507228     -0.284785     -0.132298
O      13.56519     13.58126     13.49179        -0.600360      0.647079     -0.849675
O       2.09663      2.07504      4.65804        -0.560763     -0.694146      0.325701
O       1.98483     13.51812      4.81271        -0.150324     -0.332278      0.047356
O      13.35133      1.97606      4.82627         0.087426      0.536545      0.530806
O      13.48191     13.55531      4.89146         0.155853      0.165555      0.486328
O       2.02464      2.16018      9.18197        -0.386474     -0.684539      0.729968
O       1.86433     13.32064      9.15843        -0.127301      0.912034      0.837489
O      13.33057      2.34263      9.16253         0.715204     -0.850712      0.324941
O      13.48029     13.86522      9.19169         0.346019     -0.379933      0.931082
O       1.86200      5.78819      0.52550        -0.097544      0.112238      0.639355
O       2.02276      5.65350     13.59744        -0.694946      0.324741      0.737631
O      13.51952      5.98938      0.56782        -0.388639     -0.298782      0.461471
O      13.28220      5.95744     13.49463         0.192467      0.018930      0.972857
O       1.95036      5.73560      4.76888         0.040886      0.041376      0.677169
O      13.41087      6.14076      4.90579        -0.001534     -0.514766      0.380191
O       1.79885      5.65092      9.09815         0.532527     -0.040429      1.278649
O      13.27301      5.94549      9.13030         0.883526     -0.214906      0.955446
O       1.93007      9.62488      0.52870         0.061821     -0.119853     -0.255972
O       1.68533      9.66883     13.56340         1.034562     -0.203388      1.292450
O      13.31083      9.74499      0.35829         0.345126      0.113988      1.003957
O      13.45452      9.95173     13.57269        -0.419378     -0.385632     -1.325743
O       2.01959      9.42117      4.91149        -0.137337      0.934798      0.982689
O      13.35883      9.78745      4.85982         0.458821     -0.223789      2.221454
O       1.81597      9.52733      9.31354         0.365332     -0.002467     -1.319184
O      13.59581      9.65124      9.24318        -0.441577      0.411099     -0.454130
O       5.88973      1.94171      0.56989        -0.293856     -0.120422     -0.543279
O       5.70568      1.98093     13.72851         0.191201      0.060048      0.993116
O       5.76769     13.35811      0.47833         0.121251      0.293109      0.469335
O       5.61920     13.59339     13.53153         0.041766     -0.054468     -0.107978
O       5.48569      2.03095      4.76193         0.964423     -0.181026      0.350119
O       5.64155     13.42247      4.79973         0.499403     -0.079953      1.985830
O       5.91367      1.90718      9.19925        -0.736435      0.411821      0.884740
O       5.70480     13.64671      9.08900         0.502952     -0.266320      2.137218
O       5.92207      5.90394      0.46649        -0.023833      0.331835     -0.292247
O       5.52853      5.65718     13.64240         0.644823      0.388467      0.910913
O       5.85396      5.76132      4.81423        -0.400857      0.215142      0.656948
O       5.84466      5.84260      9.26746        -0.137727      0.163606      0.538579
O       5.83299      9.72687      0.40445         0.241901     -0.057460     -0.575886
O       5.64321      9.83730     13.52232         0.104938     -0.158538      1.446721
O       5.59384      9.56020      4.86857         0.518488      0.415752      1.745060
O       5.82631      9.49668      9.36684         0.033642      0.500173     -0.763772
O       9.69474      2.04680      0.66198        -0.015173     -0.506833     -1.346773
O       9.61522      2.09599     13.62216        -0.106841     -0.160869      0.692323
O       9.66223     13.67667      0.50911        -0.363633     -0.403917      0.107911
O       9.50105     13.68815     13.43417         0.371156     -0.295646      0.924292
O       9.65069      2.03029      4.75918        -0.137127      0.035709      1.662749
O       9.67770     13.48394      4.83295        -0.360319     -0.164464     -0.434165
O       9.57953      2.04475      9.18520        -0.329117      0.091921      0.178492
O       9.66142     13.68157      9.22034        -0.378573     -0.495547      1.093118
O       9.48643      5.99784      0.50553         0.059722      0.102625      0.387651
O       9.54311      5.67210     13.46224         0.350868      0.879930      1.998992
O       9.61014      5.96559      4.98438         0.081603     -0.448186     -0.511207
O       9.59643      5.90221      9.30804        -0.455095      0.041069      0.158620
O       9.45403      9.79443      0.39828         0.263375     -0.054416     -0.062297
O       9.75235      9.90675     13.51558        -0.346819     -0.074538      0.414642
O       9.60062      9.73790      4.81446         0.249518      0.049422      1.476120
O       9.21891      9.92950      9.34245         1.078612     -0.643262      0.108497
O       3.89721      2.03029      2.54650        -0.410881      0.076853      0.112855
O       3.79573      1.83399     15.85601         1.106651      0.779355      0.158163
O       3.93721     13.31951      2.80327        -0.706437      1.005397     -0.411176
O       3.80453     13.38951     15.91156        -0.473209      0.894864     -1.115596
O       0.00551      1.88631      2.62902         0.005901     -0.281597     -0.038585
O      15.35811      2.15211     15.95225        -0.428496      0.022908     -0.273285
O       0.05855     13.58851      2.76924        -0.310629     -1.057395     -0.173292
O      15.24471     13.77915     15.88785         1.175666     -0.442137     -0.581067
O       3.81107      1.89399      7.01308         0.618089      0.224497      0.065506
O       3.73081     13.58603      7.02034         1.733309     -0.391057      0.226908
O       0.00476      1.92259      6.85662        -0.148847      0.488289      0.231414
O       0.03891     13.58019      7.03623        -0.339933     -0.796019     -0.037405
O       3.77596      1.95537     11.49884         1.255073      0.442436     -0.370328
O       3.86906     13.43225     11.07863        -0.966136     -0.237571      1.097605
O      15.33487      2.14118     11.48722         0.107214     -0.348174     -0.736955
O       0.02860     13.59634     11.42790        -0.202766     -0.143643     -0.395713
O       3.91294      5.71779      2.44879        -0.882870      0.674910      0.509694
O       3.81017      5.90002     15.81931         0.262116     -0.408555      0.164109
O      15.34112      6.03913      2.80023         0.452978     -0.031538     -0.132989
O      15.29751      5.79743     15.72628        -0.016196      0.379928     -0.160653
O       3.86910      5.80861      6.97242        -0.178536      0.344840      0.482231
O       0.00318      5.59717      6.88327         0.450529      0.109043      0.639968
O       3.76419      5.85622     11.41786         0.592309     -0.677309     -0.678541
O      15.26813      5.97763     11.30858         0.631578      0.358765      0.181792
O       3.91469      9.51838      2.60953         0.267968      0.265496      0.186944
O       3.84140      9.60175     15.76128        -0.907480      0.279938     -0.204050
O       0.03873      9.45597      2.60572        -0.310540      0.426818      0.240441
O      15.32428      9.90779     15.73504         0.911002     -0.045177      0.340372
O       3.87137      9.57054      7.18402        -0.674508     -0.098323      0.212462
O      15.30396      9.73502      7.10629         1.361979      0.560443     -0.238656
O       3.84966      9.64150     11.44854        -1.713962      0.103997     -0.246523
O      15.27998      9.78951     11.50536         0.159435     -0.551154     -0.228928
O       7.69220      2.11638      2.71747        -0.181919     -0.929078      0.311473
O       7.72960      2.03916     15.92722        -0.451956      0.112596     -0.529771
O       7.64734     13.40322      2.79968         1.067542      0.220436     -0.179939
O       7.65251     13.63040     15.60644        -0.169312     -0.322886     -0.119164
O       7.62405      2.12473      6.84074         0.394176     -0.331224      0.254279
O       7.60510     13.58792      6.96767         0.834796     -0.545606     -0.156147
O       7.62314      2.00706     11.35238        -0.308338      0.125033      0.338386
O       7.67466     13.41739     11.44535        -0.381870      0.718429     -0.339650
O       7.69912      5.83921      2.79993         0.676579      0.187867     -0.127324
O       7.66453      5.83978     15.69761        -0.179904     -0.234111     -0.134581
O       7.70810      5.82418      6.99493        -0.668859     -0.065902      0.623546
O       7.68737      5.97772     11.53546        -1.246705     -0.510452     -0.285437
O       7.64519      9.71601      2.73259         0.441636     -0.090901     -0.363424
O       7.70135      9.71454     15.59689        -1.071083      0.894838      0.151652
O       7.73245      9.77539      6.90649        -1.081775      0.111627      0.602886
O       7.74319      9.70675     11.60462        -0.923520      0.320059     -0.120034
O      11.56676      1.94020      2.86376        -0.401275      0.592496     -0.890117
O      11.55170      2.00785     15.92720        -1.388794      0.417232     -0.696052
O      11.53108     13.45206      2.70709        -0.163714      0.464885     -0.535298
O      11.51837     13.60712     15.62484        -0.317371      0.463914      0.050863
O      11.43046      2.07401      7.08343         0.371995     -0.283683     -0.243992
O      11.58611     13.63162      7.08061        -1.146939     -0.323103      0.091918
O      11.48268      2.05182     11.40305         0.570241      0.451091     -0.228113
O      11.57246     13.73219     11.27220        -0.468311     -0.096854      0.747333
O      11.43395      5.97439      2.72434         1.041306     -0.650251      0.049596
O      11.52697      6.02134     15.83650        -0.769727      0.087898     -0.509829
O      11.53595      6.07462      7.00564        -0.309890     -0.213476      0.373110
O      11.38005      5.89024     11.35778         1.976323     -0.248960      0.663411
O      11.45065      9.80357      2.64000         0.696421     -0.205483     -0.512347
O      11.52908      9.69407     15.73420        -1.055911      0.245536      0.072838
O      11.55271      9.71292      7.21936         0.077381      0.476975     -0.227980
O      11.52645      9.86661     11.30396        -0.761588     -0.413974      0.168238
O       1.91974      3.87652      2.60695        -0.190236      0.213998      0.230919
O       1.92123      3.84005     15.88865         0.330662      0.157048     -0.241400
O       2.09776     15.36198      2.58170         0.054169      0.648688      0.225876
O       2.00781     15.35428     15.87024        -0.767303     -1.068513     -0.118076
O      13.48830      4.06276      2.75265        -0.516804     -0.718274     -0.084781
O      13.20259      4.02333     15.74498         0.638603      0.382349     -0.061026
O      13.49599     15.52014      2.84609        -0.649559      0.348464     -0.754361
O      13.40683      0.25227     15.67697         0.072354     -0.885197      0.380894
O       2.04947      3.82796      6.79274        -0.284863     -0.142679      0.774817
O       1.88124      0.04059      6.89334         0.264019      0.156392      0.306870
O      13.24470      4.02343      6.85540         0.392932     -0.081798      0.455812
O      13.33490      0.26131      6.88859         0.488153     -0.760319      0.930870
O       1.75905      3.80241     11.42514         0.716710      0.602961     -0.216313
O       2.03124     15.38356     11.26794        -0.330568     -0.376067      0.225217
O      13.47069      4.11240     11.46536        -0.597187     -1.538053     -0.324127
O      13.42712      0.28727     11.40260         0.103953     -0.208441      0.009427
O       2.01842      7.74773      2.73515         0.072362     -1.713917     -0.198083
O       1.80053      7.67953     15.89695         0.246831      0.151754     -0.918236
O      13.39192      7.88894      2.61667        -0.092215     -0.120765      0.344262
O      13.56526      7.90295     15.69068        -0.279823     -0.976500     -0.147612
O       1.91903      7.64611      6.89679        -0.094220      0.112504      1.060708
O      13.51346      7.83801      7.13140         0.022532      0.704864     -0.010569
O       1.87825      7.60320     11.47116        -0.219110      0.562653     -0.249669
O      13.23048      7.81156     11.28880         0.305388      0.718288      0.653679
O       2.06615     11.53889      2.67719        -0.928145     -1.046510      0.552362
O       1.84087     11.59474     15.84618         0.268143     -0.659467     -0.608044
O      13.54317     11.55864      2.75413         0.051143      1.393840     -0.364493
O      13.35303     11.72114     15.72759         0.260268      1.243075      0.192252
O       1.98880     11.51100      7.00632        -0.547165     -0.410998      0.056169
O      13.50745     11.79675      7.07447        -0.058837     -1.448562      0.354742
O       1.67711     11.54676     11.31706         1.302206     -0.111985      0.155587
O      13.39757     11.75372     11.21104         0.294230      0.556023      0.320491
O       5.87084      4.00372      2.50149        -0.167724     -1.454568      0.758841
O       5.70343      3.84680     16.01149        -0.014153      0.891647     -0.934625
O       5.82363     15.35209      2.67175        -0.108639      0.796921      0.144894
O       5.73215     15.42336     15.88758         0.085213      0.253888     -0.159027
O       5.77913      3.99978      7.02896        -0.281719     -2.054634      0.229937
O       5.76435     15.41252      6.98067        -0.264500      0.377792     -0.339086
O       5.77848      3.97308     11.48669        -0.289790     -0.879320     -0.622670
O       5.69146      0.08795     11.39397         0.276601     -0.238499      0.095425
O       5.94029      7.70901      2.69125        -0.753433      1.021936     -0.336587
O       5.83342      7.82296     15.70861        -0.188703     -0.946371     -0.073058
O       5.82707      7.74472      7.07153        -0.087950      0.102207      0.406357
O       5.71114      7.78070     11.61925         0.250789     -1.004542     -0.425707
O       5.78475     11.54671      2.60379        -0.004591     -1.112595      0.323366
O       5.70145     11.68889     15.65613         0.534183     -0.854115      0.191244
O       5.70745     11.53742      7.18594        -0.201960      0.422107     -0.301510
O       5.69199     11.53226     11.40636         0.261644      1.301036     -0.121800
O       9.55596      3.96523      2.65785         0.736739      0.309073      0.371603
O       9.63509      4.00381     15.85837         0.092946      0.144435     -0.436787
O       9.48177     15.41282      2.81200         0.374305     -0.297656     -0.652703
O       9.51261      0.17226     15.73169         0.584784     -0.065390      0.268205
O       9.74207      3.96341      7.03049        -0.798237     -0.561120     -0.191126
O       9.67917     15.45611      6.99999        -0.683503      0.289939     -0.216754
O       9.55874      3.89522     11.51444        -0.338917      0.479634     -0.613799
O       9.56035      0.19114     11.36218        -0.205597     -0.647898      0.394802
O       9.65309      7.82749      2.77214        -0.873709      0.253183     -0.631293
O       9.48909      7.86774     15.56618         0.381034     -1.005853      0.011821
O       9.58567      7.83764      7.18117        -0.282163      0.544353     -0.058385
O       9.59846      7.84726     11.60488         0.225161      0.226226     -0.619027
O       9.56704     11.56333      2.68178        -0.231833      1.889344     -0.109052
O       9.59674     11.76929     15.68826         0.000193     -0.808928      0.073351
O       9.68688     11.63706      7.04477        -0.064269      0.369159      0.212354
O       9.72218     11.69932     11.41288        -0.295036      0.635077     -0.132347
