  # total energy = -7881.50014415 
CRSYTAL
PRIMVEC
    15.3600000000000000    0.0000000000000000    0.0000000000000000
     0.0000000000000000   15.3600000000000000    0.0000000000000000
     0.2400000000000000    0.0000000000000000    17.440000000000000
PRESSURE
2.8611 2.88915 6.26764 0.031026 -0.645496 0.004364
PRIMCOORD
320 1
Pb       3.81539      3.77398      4.34682         0.124162      0.649908      0.144074
Pb       4.04369      3.82460     17.39408        -0.082812      0.613392     -0.204093
Pb       3.89389      0.05757      4.29301         0.442703     -0.534761      0.668674
Pb       3.99825     15.34492     17.39248         0.260644     -0.166307      0.316475
Pb      15.41561      3.88483      4.31069        -0.560088     -0.051750      0.154586
Pb       0.24643      3.79345     17.37530        -0.220330      0.271801      0.545412
Pb      15.39838      0.03515      4.26676        -0.270397     -0.265279      0.931697
Pb       0.03985     15.24971      0.02172        -0.513872      0.090558     -0.108807
Pb       3.83842      3.93106      8.73487         0.259556     -0.604701      0.171942
Pb       3.99116     15.32626      8.53525        -0.477003      0.001820      0.916173
Pb      15.47397      3.79833      8.65676         0.312250      0.124728      0.298610
Pb      15.40370     15.34574      8.61037         0.328832     -0.530007     -0.103011
Pb       4.06234      3.82859     12.98285        -0.445048     -0.109177      0.688691
Pb       3.98527      0.00059     12.99131         0.101581     -0.332693      1.120296
Pb      15.46954      3.88551     12.98503         0.630368     -0.410853      0.895981
Pb      15.49754     15.31891     13.06548         0.234858      0.240761      0.322341
Pb       3.88198      7.69127      4.38986         0.192469     -0.121510     -0.529968
Pb       4.08954      7.72685     17.39165         0.020571     -0.320513      0.111185
Pb       0.06397      7.65989      4.28563        -0.325913      0.291441      0.405070
Pb       0.01493      7.61665      0.00653        -0.514342      0.556942      0.048291
Pb       3.98555      7.57997      8.61862        -0.576656      0.242269      1.018358
Pb      15.37014      7.60308      8.57387         0.540789      0.210155      0.737167
Pb       3.90589      7.50846     13.16095         0.508257      0.944011     -0.166256
Pb       0.24113      7.66175     12.93980        -1.316995      0.116504      1.223985
Pb       3.97732     11.45568      4.36510        -0.568118      0.375021      0.292985
Pb       3.92805     11.55520     17.25413         0.558923      0.288235      1.252030
Pb      15.32820     11.51432      4.39176         0.197420      0.089282      0.289627
Pb      15.53980     11.55260     17.37103        -0.071024     -0.367898      0.557516
Pb       3.99082     11.47602      8.64687        -0.721140      0.191264      0.242460
Pb      15.36403     11.56398      8.68016         0.385639      0.068626     -0.438394
Pb       4.03385     11.56954     12.84450        -0.106997     -0.674975      1.858954
Pb      15.50323     11.51504     12.98731         0.069417     -0.476174      0.613447
Pb       7.73825      3.86384      4.26976         0.120244     -0.154002     -0.164727
Pb       7.82186      3.70035     17.32485         0.244279      0.625357      0.425222
Pb       7.70452     15.29033      4.26811        -0.153138      0.893241      0.057724
Pb       7.92721     15.33598     17.43110        -0.179972      0.055052     -0.226026
Pb       7.80940      3.81386      8.68662        -0.138358     -0.124803      0.394957
Pb       7.70354      0.04640      8.69197         0.487574     -0.086543      0.578112
Pb       7.87218      3.82511     13.12667        -0.370348     -0.084924     -0.139938
Pb       7.95666     15.25759     13.07279        -0.191476      0.144900      0.117781
Pb       7.63723      7.61051      4.41784         0.127491      0.159325     -1.152790
Pb       7.88032      7.70856     17.26801         0.135846     -0.168115      0.805399
Pb       7.71310      7.67785      8.60235         0.664255     -0.215090      1.303902
Pb       7.82642      7.62579     12.98084         0.196304      0.412798      0.356588
Pb       7.71626     11.55499      4.40037        -0.069247     -0.625788     -0.805622
Pb       7.96444     11.45605     17.30115        -0.381165      0.425089      0.482217
Pb       7.78853     11.47103      8.66228         0.305652      0.357541      0.724348
Pb       7.83906     11.42348     12.97940         0.390867     -0.136127      0.250343
Pb      11.53837      3.83346      4.23253         0.138720      0.259952      0.361628
Pb      11.80109      3.75388     17.40395        -0.266222      0.813364      0.380103
Pb      11.52209     15.35947      4.17728         0.155574      0.733790      1.370283
Pb      11.40221     15.33695      0.07080         0.443829     -0.209410     -0.377120
Pb      11.59248      3.79162      8.66333         0.160748     -0.097291     -0.166991
Pb      11.67899      0.01837      8.62479        -0.117050     -0.885604      0.516130
Pb      11.69032      3.71979     13.02314        -0.081927      0.773156      0.091557
Pb      11.75731      0.08021     13.04060        -0.722226     -0.551178      0.194092
Pb      11.50694      7.69488      4.11820         0.278681     -0.103811      0.905926
Pb      11.69088      7.68570     17.37292         0.251504     -0.040861      0.003519
Pb      11.55496      7.65504      8.74757         0.254344      0.309740     -0.202133
Pb      11.67898      7.68396     12.99015         0.393115     -0.197450      0.180763
Pb      11.54380     11.50361      4.41855         0.621468      0.003938     -0.371002
Pb      11.80849     11.52737     17.37888        -0.016815     -0.366370      0.225867
Pb      11.56409     11.40095      8.73250         0.217032      0.405809      0.199092
Pb      11.75893     11.41461     13.03649        -0.566033     -0.097503      0.031386
Ti       1.93445      1.92532      2.37030        -0.324827     -0.197067      1.355400
Ti       2.05161      1.94910     15.40901        -0.405865      0.214388     -0.528150
Ti       1.93960     13.41031      2.44739         0.340802     -0.125751      2.485742
Ti       2.08713     13.48375     15.36659        -0.109862     -0.453826      0.186627
Ti      13.44249      1.91645      2.31337        -0.181911      0.779219      2.758661
Ti      13.63606      1.84861     15.48643         0.003645     -0.052285      1.055187
Ti      13.47160     13.48665      2.40223         0.250656     -1.386739      0.815322
Ti      13.54659     13.39341     15.40308         0.800696      0.075764      2.144063
Ti       2.03573      1.88565      6.73813        -0.286011      0.503460      2.445081
Ti       2.07033     13.37535      6.60135        -1.173614     -0.259093      2.374160
Ti      13.54943      1.89547      6.78366        -0.234890     -0.559728     -0.585510
Ti      13.44455     13.38050      6.66193         1.291212      0.056859      0.556295
Ti       2.08473      1.85430     11.13641        -0.150860      0.800649     -0.473270
Ti       2.02907     13.42937     11.11586        -0.071342     -0.926542      0.193673
Ti      13.61467      1.91471     11.05670         0.901591     -0.558057     -0.879765
Ti      13.51290     13.45145     11.14358         0.645840     -0.618891     -0.930101
Ti       1.94790      5.79272      2.27912         0.258883     -0.283910      2.041714
Ti       2.05848      5.81986     15.38017         0.472213     -0.743750      1.195867
Ti      13.51201      5.83256      2.29679        -1.160864     -0.649151      2.031422
Ti      13.67062      5.76184     15.39744        -0.536601      0.386608      0.845190
Ti       2.00353      5.77035      6.65240        -0.519121     -0.767736      1.375129
Ti      13.47807      5.69412      6.72526         0.455681     -0.220977      1.261198
Ti       2.05015      5.70820     11.02806        -0.058707      0.359453      1.075630
Ti      13.62521      5.68692     11.01520        -0.715671      1.056518      1.470594
Ti       2.02251      9.62458      2.37056        -0.899337      0.489630      0.970115
Ti       2.08764      9.61916     15.43255        -0.050912      0.377676      1.471509
Ti      13.51445      9.65102      2.39139         0.162221     -0.105813     -1.028506
Ti      13.70260      9.52111     15.38942        -0.716512      0.493686     -1.146162
Ti       1.95921      9.52964      6.69065         0.038917      0.553887      2.033626
Ti      13.49547      9.57925      6.70226        -0.128615     -0.233285     -0.109622
Ti       2.11204      9.54086     11.11214        -0.148279      0.261794      0.151822
Ti      13.65354      9.55500     11.02515        -0.709743     -0.116433     -0.701625
Ti       5.74306      1.95077      2.33142         1.166412     -0.474857      1.579217
Ti       5.84807      1.91500     15.41950         1.087027      0.177847      0.621901
Ti       5.72574     13.38693      2.39364        -0.194881      0.180126     -0.482630
Ti       5.95047     13.52648     15.43477         0.167186     -0.432276      0.414631
Ti       5.83238      1.93710      6.71370         0.087660      0.703851     -0.090677
Ti       5.94248     13.44301      6.68577        -1.442905     -0.818472     -0.890781
Ti       5.97903      1.86269     11.15074        -0.432943      0.571185     -0.478088
Ti       5.93072     13.47372     11.07780         0.320894     -0.407162     -0.118550
Ti       5.74062      5.67559      2.21734         0.637310      1.319078      0.110751
Ti       5.96371      5.83441     15.43105        -0.173816     -1.096927      1.221006
Ti       5.84319      5.71246      6.76162        -0.173756     -0.576258      0.850215
Ti       5.92512      5.71874     11.13856        -0.998432      0.334040     -0.896067
Ti       5.82027      9.56762      2.32099         0.425604     -0.951971      2.372134
Ti       5.88485      9.74730     15.43850         0.921965     -0.695463      0.608916
Ti       5.82474      9.59663      6.70830        -0.325400     -0.503865     -0.318106
Ti       5.87056      9.59870     11.04072         0.651535     -0.815476      2.705816
Ti       9.57996      1.95048      2.24246        -0.124036      0.699392      1.971279
Ti       9.80348      1.91161     15.45045        -0.146508     -0.536171      1.838159
Ti       9.56817     13.41474      2.37887         0.874982      0.200806      1.614067
Ti       9.79141     13.43725     15.38215        -0.279936      0.091875      0.262682
Ti       9.67226      1.84995      6.72370         0.660206      0.960761      1.896696
Ti       9.63419     13.51713      6.64437         1.532734     -1.168699      3.371919
Ti       9.76706      1.89675     10.97642        -0.843926     -0.407157      0.045026
Ti       9.74657     13.43288     11.05933         0.193401     -0.680838      0.292208
Ti       9.59882      5.82609      2.22859         0.222871     -0.794929     -0.176257
Ti       9.77007      5.68701     15.42491         0.514174      1.183835      1.677325
Ti       9.66636      5.79157      6.74345         0.995623     -0.883429      2.070414
Ti       9.72536      5.66100     11.03320         0.301988      1.255312      0.955118
Ti       9.64553      9.65486      2.23633        -0.299044     -0.918645      1.304067
Ti       9.82553      9.61019     15.43111        -0.005081     -0.099846     -0.554932
Ti       9.65969      9.62624      6.65717         1.294267     -0.202465      1.082238
Ti       9.78226      9.55785     11.13917        -0.671787     -0.126700      0.811674
O       1.91221      1.84950      0.68022         0.134016      0.080219     -1.544638
O       1.93384      2.01626     13.67110         0.343151     -0.290973      0.164925
O       1.73356     13.52810      0.77207         0.721544     -0.048726     -2.167961
O       2.09468     13.38769     13.64210        -0.197879      0.256479     -0.464940
O      13.25495      1.91544      0.66808         0.365163     -0.147560     -2.954652
O      13.60458      1.93712     13.76153        -0.308632     -0.273303     -0.845863
O      13.33665     13.35391      0.69178         0.370841      0.052892     -1.375787
O      13.66860     13.31898     13.71302        -0.205580      0.342430     -1.678964
O       2.01083      2.08725      5.07307         0.124757     -0.276546     -2.801739
O       1.99071     13.35827      4.93302         0.339970      0.405303     -1.936726
O      13.35999      1.90238      5.07927         0.492994      0.143797     -1.619920
O      13.47889     13.35135      4.95037        -0.145344      0.138720     -1.456844
O       2.08628      1.84800      9.39154         0.126898     -0.008761     -0.075263
O       1.99467     13.20136      9.39848         0.076482      0.660927     -0.086769
O      13.78331      1.83790      9.28649        -0.732052     -0.063909      0.783595
O      13.58918     13.50309      9.39024         0.180409     -0.167180      0.033711
O       1.81592      5.72909      0.59339         0.083318      0.173352     -1.338534
O       1.94174      5.71162     13.65862         0.404307      0.306935     -0.337992
O      13.46099      5.91319      0.62081         0.121162     -0.087195     -2.198536
O      13.69508      5.83602     13.67718        -0.227366     -0.512250     -0.539506
O       2.00405      5.70926      4.93673        -0.164205      0.077991     -1.781246
O      13.40048      5.77815      5.04909         0.414017     -0.319839     -2.206660
O       1.98148      5.78911      9.31075         0.490181     -0.178838     -0.384000
O      13.62510      5.59056      9.32045        -0.099162      0.366027     -1.485958
O       1.87614      9.72410      0.65713         0.350524     -0.334521     -0.860023
O       2.25233      9.41102     13.78752        -0.368197      0.414585     -2.631049
O      13.49000      9.55414      0.60700         0.151071      0.390240      0.347593
O      13.68026      9.50245     13.57647        -0.357262      0.408583      0.879869
O       2.11362      9.35060      5.01863        -0.122052      0.323854     -1.798099
O      13.41622      9.61443      4.94349         0.058284     -0.045621     -0.247136
O       2.03976      9.58537      9.42102         0.155414     -0.083180     -1.357038
O      13.54691      9.58641      9.20264         0.158620     -0.185537      1.230662
O       5.68451      1.94760      0.63947        -0.016074     -0.087183     -2.047248
O       6.02217      1.96145     13.71846        -0.228512     -0.204777     -1.224287
O       5.55223     13.43739      0.64518         0.497738      0.060231      0.472958
O       5.96194     13.59678     13.69954         0.226928     -0.307940     -0.284128
O       5.87258      2.11612      4.97984        -0.297039     -0.416259      0.074672
O       5.78721     13.39122      4.90306         0.929590     -0.134392      0.834083
O       5.86987      1.80228      9.42270        -0.038811     -0.087187     -1.001351
O       6.02403     13.25756      9.35090        -0.367079      0.875458     -0.864197
O       5.64471      5.77334      0.47318         0.364184     -0.289177     -0.346896
O       6.17676      5.66378     13.71805        -0.559351      0.115896     -0.830342
O       5.98969      5.72020      5.05566        -0.219313      0.072065     -0.812797
O       5.85238      5.73464      9.38437        -0.065617      0.080983     -0.735155
O       5.60965      9.59998      0.66577         0.145928      0.028168     -2.742984
O       5.95428      9.74128     13.74652        -0.045500     -0.123138     -1.438222
O       5.78954      9.35125      4.95947         0.237014      0.563331      0.339544
O       5.76455      9.68216      9.37929         0.385385     -0.341860     -2.825912
O       9.62760      1.93141      0.53939        -0.181973     -0.293896     -1.842089
O       9.93616      1.85935     13.76016        -0.033332      0.276112     -2.046416
O       9.63676     13.55082      0.70181        -0.059248     -0.306997     -1.743900
O       9.77123     13.40988     13.65709        -0.223807      0.284599     -0.768994
O       9.68996      1.75967      5.04745        -0.251722      0.367773     -1.523401
O       9.49939     13.44151      4.96224         0.166693      0.025046     -2.183166
O       9.67481      1.88492      9.24144         0.190082      0.011647     -0.079314
O       9.70766     13.45367      9.33695        -0.092001     -0.233658     -0.206389
O       9.65498      5.79821      0.49387        -0.039625      0.134287     -0.405730
O       9.70495      5.73725     13.71020         0.044351     -0.328193     -1.229777
O       9.60705      5.83027      5.08231        -0.172350     -0.009315     -2.645004
O       9.70707      5.64046      9.31187         0.221279      0.163917     -0.469922
O       9.59974      9.59795      0.50886        -0.000184      0.310333     -0.798162
O       9.72520      9.70193     13.68603         0.241363     -0.419924     -0.525587
O       9.73899      9.55583      4.93864        -0.217550      0.253311     -0.399012
O       9.84793      9.65461      9.45392        -0.060086     -0.388433     -3.013324
O       3.91020      2.01113      2.81206        -0.935068     -0.488381     -0.039044
O       3.94685      1.99599     15.81746         0.490728     -0.420286     -0.064282
O       3.90716     13.44900      2.97573        -0.250308     -0.285305     -0.700633
O       4.06092     13.54442     15.85023        -0.564308     -0.385225     -0.189713
O      15.35498      1.83810      2.74249         0.470475      0.289606      0.006358
O      15.50421      1.78037     15.93750         0.585031      0.598011     -0.039702
O       0.08948     13.45259      2.93834        -0.642757      0.217343     -0.449492
O       0.22611     13.41397     15.96869        -0.404664      0.239334     -0.720915
O       3.91907      1.91766      7.22042         1.249768     -0.295061     -0.349525
O       3.99249     13.32302      7.09941         0.493783      0.413211      0.018875
O       0.13414      1.99159      7.13563         0.568438     -1.197431     -0.127034
O       0.12521     13.39276      6.94243        -0.136284     -0.115300      0.863769
O       3.97183      1.88832     11.66956         0.167957      0.046665     -0.708138
O       4.00583     13.46604     11.60783        -0.261557      0.496200     -1.185200
O       0.17844      1.89287     11.51740        -0.564514      0.079853     -0.008468
O      15.49145     13.39260     11.63904         0.256085      0.203668     -0.685491
O       3.88852      5.76646      2.52158        -1.114603     -0.424512      0.714002
O       3.98976      5.72426     15.84809         0.384763      0.013362     -0.464148
O      15.34339      5.81003      2.75273         1.260173     -0.185190      0.171823
O      15.56269      5.74217     15.92873         0.120030      0.657949     -0.172170
O       3.83895      5.72718      7.07117         2.792633      0.218199      0.290013
O       0.20019      5.71129      7.14096        -1.430490     -0.242606     -0.165883
O       4.01229      5.78918     11.66689        -0.499225     -0.353383     -0.852918
O      15.48619      5.67139     11.50338         0.444377      0.330688     -0.511374
O       3.91659      9.61431      2.86633        -0.501249     -0.690789     -0.255445
O       4.04043      9.65764     15.86045        -0.332500     -0.010302      0.255541
O       0.09524      9.62913      2.85417         0.120297      0.008419     -0.036749
O      15.54801      9.63517     15.76951         0.749374     -0.015134      0.291175
O       3.97443      9.42473      7.17072         0.112206      1.005760     -0.343034
O      15.41028      9.61456      7.05488         0.512876     -0.417521      0.017992
O       4.03434      9.48405     11.51525        -0.293106      0.058552      0.121926
O       0.16572      9.61421     11.49398         0.160482     -0.152416     -0.260662
O       7.69374      1.95939      2.78096        -0.398752     -0.316946     -0.263770
O       7.90730      1.82976     15.74977        -0.353381      0.594963      0.517070
O       7.71298     13.37133      2.73881        -0.436422      0.067661      0.231618
O       7.90443     13.50171     15.92831        -0.253753     -0.386496     -0.180053
O       7.76508      1.90706      7.17829        -0.492743     -0.008094     -0.280783
O       7.81036     13.36644      7.18671        -0.364775      0.065725     -0.447694
O       7.86442      1.95168     11.36920         0.529947     -0.338821      0.674668
O       7.85001     13.36922     11.52595         0.067640      0.563637     -0.020840
O       7.77573      5.71217      2.59780        -1.380567      0.029293      0.642203
O       7.86178      5.68735     15.93108         0.205950      0.345084     -0.353132
O       7.81835      5.68274      7.24335        -0.932545      0.296955     -0.329085
O       7.73684      5.78271     11.44930         2.922892     -0.857550      0.254600
O       7.77350      9.57445      2.72156        -0.289296      0.325504      0.049051
O       7.83817      9.67027     15.81213         0.243142     -0.061545      0.354380
O       7.80436      9.58744      7.06464        -0.564433     -0.121815      0.022590
O       7.85263      9.52463     11.42487        -1.060206      0.490835      0.278141
O      11.50132      2.00076      2.74063         0.381043     -0.678473     -0.103939
O      11.70391      1.83251     15.99775         1.023264      0.362523     -0.705498
O      11.64936     13.52373      2.82488        -2.227001     -0.823105     -0.206371
O      11.64955     13.45955     15.82359         1.252254     -0.086212      0.148907
O      11.66459      1.79909      7.19091        -0.848479      0.568552      0.120423
O      11.64499     13.42759      7.11504        -1.942138      0.284627     -0.124889
O      11.64166      1.80920     11.40552         1.177163      0.697964      0.200249
O      11.66647     13.45625     11.52218         0.186507     -0.120667      0.126686
O      11.53268      5.71470      2.77491         0.190415      0.489764     -0.358816
O      11.75330      5.78141     15.90243         0.086862     -0.092531     -0.732591
O      11.64561      5.56789      7.10395        -0.754957      0.874522      0.580600
O      11.73849      5.70789     11.51265        -0.709508     -0.192785     -0.210807
O      11.62756      9.63647      2.65715        -1.471882     -0.049909      0.259326
O      11.73899      9.54851     15.77004         0.058233      0.234662      0.143456
O      11.65300      9.56902      7.18520        -1.214937     -0.658184     -0.028490
O      11.63200      9.61037     11.49205         2.304701     -0.545262      0.367355
O       1.87537      3.80445      2.80415         0.342665      0.581636     -0.299743
O       2.00231      3.88598     15.87136         0.370724     -0.863340     -0.118542
O       2.07196      0.01926      2.92322        -0.501477      0.343760     -0.501184
O       2.13088     15.34954     15.75706        -0.162384      0.765587      0.474183
O      13.50702      3.89814      2.71564        -0.007995     -0.799808      0.115052
O      13.78165      3.85156     15.89571        -0.909677     -0.810217     -0.355538
O      13.44943     15.34012      2.74257         0.418584      1.209488      0.113020
O      13.74006     15.23504     15.96319        -0.990285      0.832163     -0.645037
O       2.12942      3.83622      7.17960        -0.476250     -0.352282     -0.108630
O       2.12776     15.30494      7.14041        -0.378118      0.110522     -0.435339
O      13.62054      3.72576      7.18254        -0.405525      1.289938      0.117326
O      13.51646     15.25268      7.05395         0.745546      1.083827      0.716028
O       2.11946      3.88512     11.49110         0.018784     -0.977774     -0.159167
O       2.04286     15.31710     11.52801         0.055435      0.061548     -0.118945
O      13.60716      3.78002     11.48102        -0.366613     -0.458204     -0.023586
O      13.65693     15.34793     11.54913        -0.242888      0.419276      0.082723
O       1.94396      7.67696      2.75660         0.250883     -0.092299     -0.262594
O       2.20778      7.72936     15.80086        -0.520212     -0.800615      0.485837
O      13.54827      7.75823      2.74198        -0.286654     -0.848259      0.278132
O      13.71303      7.71468     15.79854         0.007747     -1.060252      0.387197
O       2.10937      7.62007      7.18402        -0.871335      0.838092     -0.261218
O      13.61968      7.55068      7.08184        -0.663101      1.061092      0.294819
O       2.00489      7.60481     11.57023         1.025440      0.214163     -0.615336
O      13.64244      7.67226     11.39695        -0.182901     -0.380878     -0.216045
O       2.01203     11.55070      2.89850         0.138706     -0.744936     -0.404211
O       2.08381     11.60580     15.80779         0.359244     -0.719165      0.013736
O      13.47382     11.55162      2.87392         0.216975     -0.152928     -0.182824
O      13.65126     11.46173     15.91307        -0.328072      0.852763     -0.399636
O       1.99413     11.45701      7.07732         0.592302     -0.413548      0.000623
O      13.39282     11.47652      7.06458         0.853119     -0.074457      0.285015
O       2.12413     11.44715     11.53996        -0.139776      0.492566     -0.019357
O      13.61939     11.46068     11.42527        -0.148519      0.613192      0.179597
O       5.78587      3.83917      2.74497         0.173339      0.163687      0.053155
O       6.00659      3.80917     15.85110        -0.527236     -0.238966      0.040812
O       5.79215     15.30707      2.77962         0.032412      0.773867     -0.095022
O       6.00698      0.02675     15.94373        -0.510020      0.331237     -0.062466
O       5.81224      3.82080      7.22740         0.163971      0.115796     -0.175106
O       5.91809     15.30520      7.00200        -0.209543      0.637357      0.276395
O       5.89295      3.77345     11.43486         0.007277      0.416608      0.739131
O       5.93373     15.35031     11.54748         0.185191     -0.194966      0.018440
O       5.80489      7.57796      2.74040         0.201921      0.395399      0.242067
O       5.94965      7.68886     15.80840        -0.162697      0.439952     -0.160457
O       5.92069      7.64010      7.21872        -0.168252     -0.110555     -0.648982
O       6.00263      7.60150     11.55578        -0.843819      1.212714     -0.149170
O       5.78283     11.40442      2.83587         0.430706      1.335277      0.061682
O       5.97566     11.59074     15.94490        -0.138726      0.354885     -0.419748
O       5.88380     11.49212      7.09195         0.183650     -0.597740     -0.273250
O       5.87611     11.60192     11.37522         0.162772     -1.610951      0.621821
O       9.58103      3.82014      2.65214         0.375261      0.320347      0.369501
O       9.84065      3.85812     15.87099        -0.031890     -0.850050     -0.334961
O       9.57194      0.08971      2.79713         0.136931     -1.413911     -0.381435
O       9.79886     15.34684     15.82078         0.119135     -0.035941      0.408473
O       9.81218      3.78912      7.16623        -0.893675     -0.210822     -0.320162
O       9.67683     15.31016      7.22636        -0.176837      0.170928     -0.483166
O       9.76425      3.81938     11.51270         0.175856     -0.409070     -0.016614
O       9.80351     15.34994     11.45146        -0.442939      0.098836      0.240251
O       9.58440      7.68338      2.68970         0.578366      0.649634     -0.054600
O       9.73828      7.72805     15.82450         0.142680     -0.823601     -0.165723
O       9.72194      7.67834      7.21774         0.001281      0.222404     -0.170456
O       9.85056      7.62644     11.45142        -0.472260     -1.129488      0.104332
O       9.66073     11.52392      2.81249         0.051314      0.147922     -0.272404
O       9.87555     11.53320     15.75864        -0.492044      0.172669      0.730539
O       9.78402     11.51038      7.19016        -0.599103     -0.123574     -0.813820
O       9.82851     11.40617     11.48837        -0.451358      2.316254      0.349488
