  # total energy = -7879.27738813 
CRSYTAL
PRIMVEC
    15.3600000000000000    0.0000000000000000    0.0000000000000000
     0.0000000000000000   15.3600000000000000    0.0000000000000000
     0.2400000000000000    0.0000000000000000    17.440000000000000
PRESSURE
0.584825 0.33644 -5.26871 -0.099445 -0.735667 0.065689
PRIMCOORD
320 1
Pb       3.96058      3.95787      4.30397        -0.460995     -0.591525      0.061400
Pb       4.08456      3.80047     17.38375         0.191637     -0.135196     -0.596318
Pb       4.02317     15.25804      4.47714        -0.335864      0.361885     -0.712985
Pb       3.66499     15.35323      0.06867         0.241186      0.348213     -0.685489
Pb      15.31655      3.81905      4.23282         0.244310      0.077658      0.192664
Pb       0.09729      3.83988      0.08316        -0.243386     -0.279344     -0.784869
Pb      15.33634      0.16820      4.46635         0.023810     -0.245797     -0.390454
Pb      15.08216     15.20767      0.10741         0.564210      0.150754     -0.412668
Pb       4.13035      3.66035      8.60344        -0.376425      0.814372      0.323924
Pb       3.83997     15.31595      8.91904         0.104870      0.258652     -0.416732
Pb      15.41106      3.81417      8.56566        -0.010525      0.064241      0.033723
Pb      15.45203     15.31833      8.68613        -0.142083     -0.097489     -0.318880
Pb       3.92885      3.83760     13.09362        -0.284146      0.232271     -0.313771
Pb       4.13926      0.02075     13.16442        -0.733439     -0.285082     -0.171266
Pb       0.18869      3.85777     13.05035        -0.005730      0.141264     -0.049117
Pb       0.25575      0.22821     13.04118         0.178906     -0.591776     -0.259407
Pb       3.79893      7.65644      4.29336        -0.358040     -0.064706      0.072656
Pb       3.87309      7.63929     17.31961         0.477308      0.287393     -0.310459
Pb      15.37293      7.64259      4.34806         0.342200     -0.123024     -0.106364
Pb      15.52707      7.84278     17.32797         0.074933     -0.519484     -0.061246
Pb       3.87287      7.63969      8.71567         0.310044     -0.702182      0.156093
Pb      15.34682      7.67260      8.72567        -0.059267     -0.250918     -0.751528
Pb       4.06085      7.79595     12.84763        -0.521307     -0.970258      0.520451
Pb      15.28053      7.65832     13.11953         0.657521     -0.652527      0.060626
Pb       3.78864     11.45470      4.40341         0.329251     -0.063233     -0.316829
Pb       3.86807     11.66220      0.23962        -0.116433     -0.664341     -1.417936
Pb       0.22124     11.58643      4.42335        -0.330491     -0.096859     -0.723196
Pb       0.25313     11.43724     17.43353        -0.215741      0.260298     -0.879015
Pb       3.85605     11.52551      8.74164         0.073761     -0.136282      0.273108
Pb      15.38865     11.35809      8.63123        -0.027472      0.754520      0.101644
Pb       4.03025     11.45473     13.08412        -0.120862      0.206221     -0.119785
Pb       0.32839     11.53915     12.95396        -0.363580      0.467048      0.632841
Pb       7.67523      3.87433      4.16595         0.199917     -0.310053      0.176222
Pb       7.81534      3.98788      0.01115        -0.344939     -0.444762     -0.159136
Pb       7.74672      0.17116      4.28086        -0.086139     -0.389611     -0.229692
Pb       7.77817     15.24040     17.30549         0.488271     -0.012800     -0.043250
Pb       7.72722      3.84805      8.66842         0.106193      0.024514     -0.053145
Pb       7.86974     15.35178      8.67936        -0.227194      0.076467      0.383664
Pb       7.85642      3.52853     13.16319         0.309721      0.596934      0.141720
Pb       7.81937     15.26518     13.06287        -0.088474     -0.043747     -0.263649
Pb       7.69126      7.80570      4.16558        -0.022807     -0.504427      0.790905
Pb       7.81077      7.59409     17.41986         0.150919      0.524506      0.108696
Pb       7.86028      7.63806      8.81452        -0.029529      0.029167     -0.593459
Pb       7.82001      7.59177     13.09489         0.383060      0.194921     -0.475204
Pb       7.56470     11.48394      4.21828        -0.185184      0.188154      0.335816
Pb       7.83633     11.43121     17.41800         0.359729     -0.183037     -0.450819
Pb       7.83083     11.58929      8.77427         0.317616     -0.016255      0.323888
Pb       7.85843     11.40856     13.04478         0.030768      0.257359     -0.118981
Pb      11.52151      3.84397      4.24061         0.126733     -0.624549     -0.464470
Pb      11.74958      3.81967     17.39419         0.162016     -0.119270     -0.124000
Pb      11.49713     15.32350      4.36560         0.386515      0.416403     -0.135194
Pb      11.76785     15.13809     17.27416         0.039401     -0.050650      0.109632
Pb      11.52714      3.79085      8.61978         0.036012      0.399716      0.446287
Pb      11.49698     15.20613      8.73729         0.425575      0.522811     -0.129528
Pb      11.75395      3.92116     13.15553        -0.016525      0.051265     -0.293845
Pb      11.75267     15.35611     13.05633         0.070057      0.172600      0.225373
Pb      11.50999      7.70695      4.47042         0.236883      0.109660     -0.603312
Pb      11.87392      7.70205     17.37914        -0.169733      0.022078     -0.055518
Pb      11.58052      7.60632      8.56622        -0.066204      0.053432      0.198879
Pb      11.59060      7.56440     13.16105         0.304767     -0.175378     -0.328681
Pb      11.36916     11.56053      4.27707         0.665676     -0.157317      0.378351
Pb      11.75105     11.34948     17.43061         0.053965      0.679774     -0.429527
Pb      11.66625     11.48837      8.57093        -0.291394     -0.436976      0.529115
Pb      11.72344     11.65681     12.99834        -0.168517     -0.256137      0.003371
Ti       1.97291      1.91069      2.35925         0.055528     -0.122415     -0.145295
Ti       2.14698      1.88774     15.39996         0.337431      0.266414     -0.841886
Ti       2.02105     13.49371      2.30600        -0.879005      0.203656      0.161880
Ti       2.26538     13.43558     15.46366        -1.126671     -0.782100     -2.093572
Ti      13.42098      1.89739      2.24715         0.110493     -0.320924     -0.200057
Ti      13.71437      1.88426     15.43416        -0.075852     -0.286776      0.052341
Ti      13.51519     13.43302      2.40200         0.049144      0.002447     -1.116966
Ti      13.83621     13.37355     15.26337        -0.648139      0.161971      0.060351
Ti       2.03235      1.90928      6.64382        -0.258962      0.085393     -1.402640
Ti       2.08841     13.45497      6.70981        -1.513893      0.574655     -0.474423
Ti      13.44147      1.87543      6.67905         0.251612     -0.706539     -0.932780
Ti      13.54351     13.38274      6.61168         0.828863      1.144256     -0.358999
Ti       2.04967      1.97575     10.89255         0.178592     -0.906705      0.365666
Ti       1.98019     13.41840     11.01949         0.988603      1.158457     -1.271389
Ti      13.53413      2.00047     11.01960         0.458407      0.110170     -1.424695
Ti      13.57505     13.48660     10.98852         0.195670      0.376488     -1.119156
Ti       1.90304      5.74190      2.24579         0.157959      0.215773      1.567366
Ti       2.11906      5.72632     15.34198         0.085162      0.124529     -1.872182
Ti      13.44389      5.84014      2.25245         0.446105     -0.818040     -0.839296
Ti      13.70886      5.70925     15.54628         0.059775      0.104808     -1.552063
Ti       2.01125      5.72113      6.65186        -0.165523      0.431614     -1.262035
Ti      13.51050      5.66307      6.55587        -0.045693      1.543928      0.173186
Ti       1.98904      5.73864     10.94750         1.409903     -0.376191     -1.082504
Ti      13.63928      5.78492     10.97294        -1.345375     -1.264378     -0.915651
Ti       1.88005      9.61508      2.19376         0.013567     -0.537542      0.536417
Ti       2.15337      9.59896     15.27725        -0.107871      0.156251     -0.133489
Ti      13.43533      9.58549      2.29836         0.358259      0.094772     -1.005633
Ti      13.60164      9.64105     15.24282         0.821902     -0.108646      2.028458
Ti       2.03425      9.58108      6.74222        -0.402325     -0.747400     -0.686800
Ti      13.52734      9.55140      6.56344        -0.627995     -0.666808      0.735926
Ti       1.98519      9.53009     11.01268         1.106258      0.101918     -0.807706
Ti      13.61186      9.61507     11.07190        -0.879475      0.008242     -2.100161
Ti       5.74942      1.86109      2.16968         0.615118      0.299389     -0.006614
Ti       6.05804      1.88876     15.42554        -1.909021      0.461770     -0.125675
Ti       5.82062     13.36846      2.18386        -0.846342      0.847433      0.005103
Ti       6.02760     13.34298     15.45852        -0.637436     -1.151524     -1.233700
Ti       5.87104      1.82803      6.57945        -0.040903      0.670803      0.310689
Ti       5.83400     13.48571      6.83988         1.252979     -0.058604     -1.565756
Ti       5.81633      1.90936     11.11773         1.272844     -1.237905     -1.320537
Ti       5.79391     13.34154     11.10666         1.742570      0.615259     -1.044845
Ti       5.78055      5.74964      2.24878        -0.123185      0.398790     -0.103150
Ti       6.00596      5.73453     15.27363        -0.938738     -0.513730      0.338320
Ti       5.86116      5.76359      6.64270         0.312938      0.036977      0.340024
Ti       5.98438      5.64361     11.15140        -1.639964      0.152249     -2.491030
Ti       5.61803      9.55114      2.31095         1.021346      0.637001      0.593897
Ti       5.90080      9.49674     15.27649        -0.542608      1.569369     -0.156822
Ti       5.89651      9.63672      6.84815        -0.143955     -0.631494     -0.758373
Ti       5.99115      9.54182     10.98661         0.096988      0.096167     -0.948102
Ti       9.62470      1.82241      2.08431         0.225969      0.450893      0.527458
Ti       9.83921      1.79608     15.49101         0.952424      0.328313     -1.301401
Ti       9.66179     13.43221      2.27896        -0.186278     -0.147174     -1.608632
Ti       9.90943     13.31646     15.29683        -0.616829     -0.493549     -0.604477
Ti       9.66455      1.92279      6.55210         0.289778     -0.462533     -0.308433
Ti       9.74401     13.43823      6.67211        -0.939254      0.439142     -0.019201
Ti       9.80265      1.88677     11.15811        -0.689405      0.426528     -1.279958
Ti       9.68051     13.40400     11.15971        -0.047014     -0.082408     -1.135471
Ti       9.65911      5.77964      2.37380        -0.461119     -0.295999     -1.753417
Ti       9.81700      5.79757     15.48156         1.002972     -0.536520     -1.402679
Ti       9.63476      5.70871      6.44224         0.749081      0.060590      0.713686
Ti       9.72553      5.64911     11.12938         1.415090      0.097281     -0.622569
Ti       9.66079      9.63692      2.32254        -0.818312     -0.808457     -0.547087
Ti       9.72591      9.54874     15.39227         0.406688      1.276120     -0.833315
Ti       9.65266      9.58004      6.59227         0.109552     -0.277606      0.162228
Ti       9.86315      9.49755     11.13703        -0.740038      0.360082     -2.174405
O       2.07037      1.90768      0.52854        -0.197655      0.006587      0.796659
O       2.07439      2.07088     13.55019         0.101280     -0.523241      1.427613
O       2.00622     13.48474      0.48617        -0.195996     -0.122647      0.533156
O       2.19510     13.37162     13.59190        -0.098927     -0.207114      1.120366
O      13.56226      1.78156      0.42595        -0.261720      0.190376      1.218117
O      13.74394      1.81880     13.64817         0.078743      0.328079      0.073202
O      13.44632     13.47416      0.43315         0.010718     -0.024297      2.447520
O      13.84599     13.41899     13.47382        -0.351300     -0.028178      0.567806
O       2.04393      1.96997      4.80772        -0.132913     -0.479829      1.068740
O       2.15681     13.46086      4.86081        -0.161071     -0.308759      1.028598
O      13.41977      1.75219      4.79428         0.023767      0.830512      1.812121
O      13.59767     13.45896      4.78394        -0.389244     -0.342523      1.098942
O       2.01229      1.86994      9.11070         0.238497      0.207162      0.067950
O       1.94420     13.47745      9.15533         0.603380     -0.138456      1.241466
O      13.53031      2.08969      9.17048         0.072820     -0.289935      1.595829
O      13.61492     13.50979      9.14229        -0.247241     -0.173909      1.649561
O       2.00308      5.73509      0.50414        -0.172352     -0.171625     -0.506419
O       2.00116      5.64231     13.47623         0.249603      0.083580      1.587611
O      13.48467      5.76858      0.38496        -0.080080      0.066132      1.509948
O      13.67443      5.74915     13.65328         0.299765      0.118592      1.290858
O       2.05493      5.87129      4.74077         0.103915     -0.404818      1.920196
O      13.53065      5.75123      4.76984        -0.545668     -0.034267      0.106400
O       2.01217      5.73828      9.10990        -0.247859      0.048340      1.213885
O      13.61223      5.67010      9.17352         0.238561      0.302829      0.603058
O       1.96643      9.52886      0.40555        -0.258751      0.291995      1.073738
O       2.18310      9.64625     13.44753        -0.273162     -0.194140      0.766037
O      13.44377      9.48720      0.31224         0.044544      0.356823      3.047964
O      13.65716      9.49060     13.50416        -0.007741      0.254717     -0.881589
O       2.01263      9.64087      4.91057         0.360187     -0.041882      1.104743
O      13.40480      9.46824      4.77865         0.116012      0.330900      0.768090
O       1.91066      9.60711      9.16745        -0.012635     -0.010991      1.308285
O      13.60673      9.60484      9.03347         0.009557     -0.081228      3.073420
O       5.78306      1.89664      0.37523        -0.060221     -0.227309      0.355722
O       5.84001      1.90056     13.62048         0.681522     -0.052972      0.858335
O       5.80751     13.28583      0.36045        -0.217389      0.369090      0.613343
O       5.81223     13.33775     13.65468         0.319314      0.024597      0.151003
O       5.79239      1.83617      4.79042         0.236994     -0.179266      0.422204
O       5.88069     13.47271      4.94556        -0.404792      0.048351      1.787040
O       5.89010      1.87768      9.28120        -0.153813      0.321217      0.901150
O       6.01651     13.49458      9.30099        -0.564444     -0.211501      0.784433
O       5.88392      5.87724      0.45710        -0.292696     -0.287945      0.703400
O       6.06988      5.67063     13.49694        -0.016936      0.283487     -0.065993
O       5.86255      5.58836      4.84410        -0.340276      0.633006      0.930527
O       5.94707      5.60186      9.16258         0.642004     -0.269206      2.222344
O       5.60529      9.60934      0.60118         0.101856     -0.168198     -0.994615
O       5.85581      9.55886     13.44589         0.409692     -0.256068      1.204317
O       5.63008      9.71601      4.99563         0.709022      0.043708      1.516583
O       6.07208      9.65780      9.15864        -0.426683     -0.341122      1.142010
O       9.65873      1.78529      0.30931        -0.340695      0.108498      0.035525
O       9.81155      1.90511     13.66023         0.036062     -0.102709      1.246614
O       9.85865     13.32226      0.49320        -0.614899      0.276042      1.045441
O       9.75381     13.21864     13.46233         0.263145      0.230079      0.845520
O       9.72176      1.75040      4.76095         0.018791      0.178587      0.375400
O       9.71557     13.61876      4.89601        -0.354679     -0.770678      0.075053
O       9.75654      2.03431      9.31288         0.035390     -0.511168      1.721317
O       9.72511     13.49639      9.31659         0.127297      0.173049      0.879156
O       9.55810      5.77646      0.45801        -0.064520     -0.005800      1.361746
O       9.78904      5.81221     13.61327         0.213346      0.018299      1.505918
O       9.64765      5.74280      4.65419         0.241873     -0.197942     -0.188668
O       9.71458      5.55316      9.34164        -0.231373      0.461547      0.530970
O       9.64381      9.67858      0.54684         0.100567     -0.340114      0.250851
O       9.73131      9.60449     13.55167         0.179302     -0.046085      1.492241
O       9.68216      9.59655      4.75279        -0.005265     -0.014784      1.132958
O       9.84895      9.33311      9.24998        -0.186135      0.587308      1.868944
O       3.95542      1.92993      2.64434        -0.742696      0.284464     -0.116215
O       4.11654      1.94776     15.73011        -0.213995      0.050295      0.455593
O       3.86346     13.35036      2.50212         0.520573      0.528241      0.339746
O       4.05357     13.34362     15.81928         0.708459     -0.240387      0.627219
O      15.36406      1.86244      2.75131         0.480858      0.236763     -0.404507
O       0.33120      1.88128     15.86764        -0.433554     -0.125341     -0.238025
O      15.36486     13.41263      2.70143         0.344380      0.033939     -0.223946
O       0.31516     13.38299     15.86803        -0.489519     -0.083487     -0.270628
O       3.92741      1.80006      6.99081         0.676315      0.310541      0.089067
O       3.95379     13.50099      7.21653         0.571119     -0.387696     -0.316247
O      15.40405      1.82603      6.97552         0.194950      0.603671     -0.067066
O       0.15768     13.35186      7.03685        -0.763883      0.519699     -0.469215
O       4.00621      1.85215     11.41874        -0.850657      0.685993     -0.068767
O       3.98354     13.38453     11.31889        -0.334568     -0.319898      0.144549
O       0.21702      1.89514     11.34962        -1.088423     -0.034876      0.009055
O       0.20108     13.51197     11.32865        -1.128314      0.047387      0.304696
O       3.85001      5.62060      2.68614         0.273559      0.948946     -0.562716
O       4.12925      5.70419     15.55951        -0.624278      0.439914      0.477530
O      15.32233      5.80711      2.73773         0.656061     -0.503635     -0.625548
O       0.28938      5.68033     15.81878        -0.659830     -0.028636      0.059923
O       4.02572      5.79462      7.09271        -0.344528     -0.286011     -0.627482
O       0.10961      5.78802      6.82345         0.000759     -0.301155      0.459652
O       4.02259      5.68640     11.28460         0.387240     -0.241368      0.547512
O      15.50030      5.72941     11.32571         0.686254      0.150974      0.282832
O       3.77997      9.57245      2.72334        -0.369972      0.233273     -0.054714
O       4.01475      9.47204     15.72446         0.384852     -0.004358     -0.362546
O      15.39058      9.63819      2.71357        -0.036252     -0.254023     -0.438288
O      15.56938      9.58927     15.73395        -0.139690     -0.063875     -0.375585
O       3.89272      9.57959      7.34159         0.710015      0.577163     -0.972199
O      15.41962      9.51366      6.95477         0.176432      0.599684     -0.105979
O       4.05898      9.54189     11.38982        -0.756888      0.633735     -0.858945
O      15.47132      9.54938     11.46732         0.444390      0.087621     -0.360111
O       7.75357      1.93766      2.55959        -0.420985     -0.502033      0.026343
O       7.94196      1.96554     15.72848        -0.218354     -0.621011      0.098162
O       7.57974     13.32969      2.51441         2.332331      0.105413      0.403234
O       7.95184     13.20542     15.74106        -0.494234      0.698486      0.195737
O       7.79401      1.82707      6.82564        -0.113445      0.182629      0.317432
O       7.90376     13.47311      7.24270        -0.700000     -0.097363     -0.622572
O       7.82514      1.86078     11.59030         0.921935     -0.472950     -0.306644
O       7.72771     13.37423     11.51731         1.163816      0.547653      0.127360
O       7.65152      5.77614      2.76592         0.734650      0.201805     -0.641455
O       7.96279      5.83383     15.83451        -0.591764     -0.265064     -0.295186
O       7.88979      5.68141      6.98869        -1.522141     -0.082949      0.147369
O       7.90489      5.85654     11.44386        -0.952299     -0.268281     -0.008540
O       7.68230      9.59401      2.70267        -0.031497      0.451712     -0.144889
O       7.81832      9.62139     15.83785         0.895533     -0.214423     -0.548199
O       7.81447      9.55588      7.12015        -0.081905      0.729551     -0.521650
O       7.93144      9.50086     11.39834        -0.379426     -0.218272      0.136147
O      11.54507      1.89949      2.52451        -0.270463     -0.172490      0.090830
O      11.82977      1.84824     15.78994        -0.718791     -0.031639     -0.118228
O      11.49031     13.46346      2.84160         1.056021     -0.509501     -0.574098
O      11.74075     13.35737     15.58092         1.158134      0.234093     -0.102260
O      11.58978      2.02749      7.12789         0.205057     -0.906754     -0.760500
O      11.66523     13.46225      7.08084        -0.213726     -0.026681     -0.197030
O      11.67533      2.05890     11.59597         0.383043     -0.530495     -0.417845
O      11.66070     13.42148     11.43538         0.848713      0.017316     -0.010728
O      11.57763      5.73110      2.57058        -0.606408      0.174595      0.334894
O      11.78063      5.78821     15.78448        -0.383969     -0.145469      0.159635
O      11.59172      5.72856      6.97474        -0.618329      0.173782     -0.520354
O      11.76467      5.68923     11.43626        -0.622357      0.196445      0.440731
O      11.52068      9.45959      2.72300         0.656298      0.535604     -0.326857
O      11.80879      9.55402     15.77220        -1.080662     -0.174957     -0.412438
O      11.55636      9.56574      7.09708         0.401581     -0.260305     -0.842403
O      11.75984      9.59114     11.54239         0.551171      0.355495     -0.371612
O       1.85474      3.81281      2.71485         0.150566      0.248529     -0.501792
O       2.17336      3.87080     15.80879         0.232189     -0.737482      0.310932
O       2.01914      0.00570      2.76549         0.036606     -0.235566     -0.390258
O       2.31315     15.32835     15.65432        -0.268860      0.477773      0.300001
O      13.42245      3.83148      2.66799         0.380856     -0.043795     -0.272308
O      13.71958      3.75016     15.83790        -0.068591      0.646559      0.019884
O      13.51311      0.00961      2.79703        -0.273858     -0.782984     -0.947348
O      13.68808     15.24476     15.71494         0.421326      0.316770      0.168364
O       2.05800      3.84331      6.94059         0.024041     -0.248077      0.144787
O       2.04308      0.01268      7.05307        -0.148551     -0.645777     -0.073549
O      13.51049      3.89321      7.00986         0.401153     -1.503136     -0.319536
O      13.47335     15.34846      7.07591         0.197982     -0.025756     -0.328478
O       2.07229      3.81688     11.29442         0.092858      0.301809      0.146472
O       2.14467      0.02127     11.30817        -0.004077     -0.420562      0.108126
O      13.67611      3.84685     11.50325        -0.101174     -0.341748     -0.108185
O      13.47125      0.09205     11.40037         0.559311     -0.508660     -0.215687
O       1.93238      7.67460      2.62673         0.209850      0.162765     -0.140952
O       2.06662      7.63684     15.75052         0.357719     -0.028105     -0.164825
O      13.50429      7.69076      2.74232        -0.291090     -0.119720     -0.545971
O      13.71638      7.61480     15.81425         0.068180      0.653991     -0.656765
O       1.99665      7.63739      7.08015         0.492989      0.695738     -0.127197
O      13.48894      7.63122      7.06200         0.149732      0.460769     -0.558043
O       2.15941      7.65450     11.27804        -0.519656      0.289261      0.031227
O      13.66693      7.62901     11.36014        -0.151395      1.380490     -0.054763
O       1.93261     11.55274      2.72862         0.084701     -0.439812     -0.302355
O       2.13798     11.39480     15.81187         0.116034      0.782987     -0.061535
O      13.49932     11.44250      2.61094        -0.698555      0.513034      0.038810
O      13.64162     11.51078     15.74909         0.425825     -0.300077     -0.477253
O       2.01227     11.54738      7.07751         0.564199     -0.790768     -0.214235
O      13.47894     11.52549      7.01833         0.255936     -0.741693     -0.539150
O       2.04445     11.47660     11.39613         0.200395      0.026630     -0.477696
O      13.69166     11.63138     11.30518        -0.141338     -1.764194      0.105694
O       5.87337      3.91550      2.62715        -0.320134     -1.260807     -0.358657
O       5.99123      3.87441     15.78114         0.682237     -0.339140     -0.180383
O       5.85599      0.01177      2.59959        -0.350267     -0.698202     -0.208709
O       5.92083     15.21972     15.72750         0.861368      1.468671      0.323413
O       5.91108      3.75048      7.05324        -0.180552      0.157959     -0.345884
O       5.95267      0.02136      7.19791        -0.406556     -0.666980     -0.512942
O       6.02282      3.71296     11.52179        -0.069513      1.672959     -0.131148
O       5.88504     15.35689     11.60973         0.172093     -0.850981     -0.333980
O       5.80624      7.73346      2.75618        -0.574119     -1.129385     -0.242438
O       5.96920      7.69804     15.68523         0.504912     -1.093800      0.139515
O       5.90745      7.69377      7.19765         0.069263     -0.044331     -0.758768
O       5.88689      7.60528     11.33246         0.646611     -0.033785      0.152967
O       5.69644     11.53213      2.71549         0.072344     -0.586195      0.003074
O       5.91957     11.42239     15.80273        -0.136463     -0.301982      0.039918
O       6.03732     11.62726      7.30154        -1.183704     -0.788863     -0.896990
O       6.03411     11.37321     11.44123        -0.634308      1.294075     -0.282385
O       9.60441      3.73712      2.54405         0.297373      1.002223      0.093942
O       9.93081      3.83403     15.86456        -0.495523      0.140749     -0.267886
O       9.64200     15.27487      2.53727        -0.506855      0.910821      0.178598
O       9.83075     15.17325     15.68497        -0.425546      1.565852      0.260572
O       9.72855      3.77993      6.80072        -0.193891      0.728598      0.161300
O       9.72019      0.01477      7.09317         0.625772      0.046390      0.097367
O       9.78720      3.81668     11.58628        -0.490126     -0.163017      0.073083
O       9.87790     15.33320     11.60805        -0.634837      0.419931     -0.551027
O       9.58597      7.62596      2.67437         0.126960      0.440481      0.001780
O       9.83355      7.74169     15.75827         0.071105     -0.580274      0.122449
O       9.58443      7.65201      6.93760         0.872949     -0.121680     -0.243964
O       9.89688      7.67367     11.55836        -0.240613     -0.719703     -0.180071
O       9.63339     11.50325      2.66736         0.075133      0.254328      0.476593
O       9.93657     11.50022     15.90359        -0.463738     -1.490693     -0.507363
O       9.84081     11.54842      6.99588        -0.612701     -0.720819     -0.230459
O       9.74642     11.54945     11.35089         0.241018     -1.277600      0.296699
