  # total energy = -7881.03567203 
CRSYTAL
PRIMVEC
    15.3600000000000000    0.2300000000000000    0.0000000000000000
     0.0000000000000000   15.3600000000000000    0.0000000000000000
     0.0000000000000000    0.0000000000000000    17.440000000000000
PRESSURE
2.81829 2.82313 3.35183 -0.085676 0.216027 -1.61342
PRIMCOORD
320 1
Pb       3.81380      3.90983      4.35828         0.518113      0.474568      0.202430
Pb       3.84449      3.69596      0.06451        -0.041899      0.781831      0.137620
Pb       3.95476     15.40538      4.26373        -0.169202     -0.663012      0.393311
Pb       3.94354     15.36033      0.09137        -0.498751      0.054480      0.088897
Pb      15.31200      4.13475      4.28458        -0.256438      0.135408      0.846322
Pb       0.00877      3.75419      0.00246         0.051760      0.288986      0.100211
Pb       0.02827     15.18516      4.35817        -0.107602      0.671207     -0.443449
Pb       0.01299      0.02815     17.36885        -0.203813      0.041996      0.971519
Pb       3.82622      3.72200      8.60831        -0.166763      0.518969     -0.054813
Pb       3.90779      0.07560      8.54791        -0.700312     -0.550016      0.102133
Pb      15.28563      3.86785      8.55306         0.587032      0.286296      0.838726
Pb      15.34833     15.50184      8.64009         0.014302     -0.190398      0.390213
Pb       3.67307      3.72937     13.01324         0.862411      0.328334     -0.018898
Pb       3.80366     15.30367     13.00718         0.116960      0.685355      0.591767
Pb      15.32037      4.04294     12.96754        -0.470819     -0.206640      0.057720
Pb       0.00472     15.34763     13.03449        -0.723983     -0.224371      0.112270
Pb       3.74307      7.76623      4.37935         0.621873      0.031246      0.059445
Pb       3.81798      7.65076     17.34701         0.006449     -0.278249      0.745636
Pb       0.03398      7.87947      4.41640        -0.148309     -0.773782      0.313144
Pb      15.27838      8.01021     17.41042         0.209251     -0.847019     -0.134295
Pb       3.86917      7.70257      8.77267         0.003701      0.099016      0.041132
Pb       0.11576      7.55320      8.82830        -0.248627     -0.079382     -0.547240
Pb       3.64371      7.63351     13.12421         0.492965      0.392434     -0.296746
Pb      15.33666      7.88773     13.05697         0.210376     -0.026202     -0.213195
Pb       3.68011     11.62264      4.24255         1.103685     -0.452715      0.333506
Pb       3.69811     11.58372     17.36939         0.305961      0.080330      0.402504
Pb      15.26838     11.79931      4.33233         0.118581     -0.349172      0.048324
Pb      15.18805     11.71762     17.41994         0.183985      0.509623     -0.328451
Pb       4.02409     11.56915      8.68817        -0.574207     -0.078007      0.302106
Pb       0.12424     11.46826      8.81149        -0.382286      0.039849     -0.038293
Pb       3.71230     11.51701     13.03333         0.752274     -0.030412      1.101995
Pb      15.35561     11.70283     13.11157        -0.060750      0.090673     -0.018732
Pb       7.73166      4.00643      4.26736        -0.103187     -0.006137      0.095255
Pb       7.74268      3.81531     17.34719        -0.226971      0.556305      0.050260
Pb       7.78474     15.39668      4.24813        -0.137658      0.179551      0.193343
Pb       7.67774      0.14671     17.32905         0.141292     -0.114983      0.310426
Pb       7.54256      3.91272      8.61034         0.200558     -0.083880      0.649584
Pb       7.55178     15.40660      8.53349         0.796225      0.194582      1.186347
Pb       7.53243      3.94692     13.02015         0.675280      0.412094     -0.184410
Pb       7.62304      0.23409     12.98456         0.653770     -0.143806      0.190653
Pb       7.73889      7.78731      4.29725        -0.806082     -0.373043      0.057842
Pb       7.51960      7.80909     17.25234         0.204906     -0.414262      1.077313
Pb       7.64494      7.65138      8.72596        -0.334841      0.260620      0.696575
Pb       7.68066      7.88693     13.08360         0.036310     -0.643207     -0.087810
Pb       7.59056     11.51975      4.18763        -0.062954      0.065429      0.171303
Pb       7.68383     11.56373     17.24460        -0.304434      0.386800      0.859067
Pb       7.72348     11.50796      8.68004        -0.112008      0.792233      0.321720
Pb       7.67676     11.79620     13.04239        -0.455604     -0.664652      0.821133
Pb      11.46282      4.00405      4.37815         0.004671      0.010600      0.192880
Pb      11.64709      4.15346      0.00188        -0.281102     -0.521516      0.555927
Pb      11.58981     15.42458      4.22989        -0.452391      0.361718      0.532278
Pb      11.58467      0.28545     17.42583        -0.097090     -0.649422      0.441772
Pb      11.50739      4.02361      8.62445        -0.191329     -0.266547      0.250046
Pb      11.38466     15.52966      8.64648         0.245480     -0.484186      0.231521
Pb      11.56124      4.23214     13.04776        -0.633257     -0.872197      0.134300
Pb      11.43700      0.21902     12.93733        -0.068135      0.043183      0.098147
Pb      11.47444      7.91714      4.40247         0.330592     -0.909999     -0.057711
Pb      11.44770      7.92159     17.33573         0.585800     -0.311663      0.719943
Pb      11.50780      7.86840      8.75463         0.517035     -0.231193     -0.123744
Pb      11.60963      7.96362     12.94956        -1.034560     -0.266256      1.117819
Pb      11.46104     11.48425      4.39739        -0.040603      0.629868     -0.194104
Pb      11.41591     11.80215     17.25784         0.484202      0.007850      0.316038
Pb      11.60983     11.65267      8.63892        -0.468088      0.747372      0.644360
Pb      11.40873     11.82357     12.96612         0.305458     -0.596163      0.237350
Ti       1.95137      1.99986      2.59607        -0.667633     -1.312179     -0.848444
Ti       1.85630      1.90599     15.38840         0.286185      0.349423      1.994507
Ti       1.86314     13.42746      2.30297         0.499706      0.793999     -0.057638
Ti       1.85458     13.51276     15.43477         0.903437     -1.771677     -0.455163
Ti      13.46371      2.11105      2.48818        -0.401231     -0.352430     -0.024552
Ti      13.32979      2.12156     15.39027         1.622348      0.287247      0.938889
Ti      13.32846     13.58519      2.32452         0.951061      0.656416     -0.242258
Ti      13.48298     13.69037     15.35863        -0.996172     -0.352816      0.849052
Ti       1.88021      1.82288      6.58808         0.160996     -0.305535      0.581646
Ti       1.87368     13.29392      6.67011         1.186233      2.035548      0.614378
Ti      13.39187      2.03670      6.69211         0.178466     -0.516326      0.243952
Ti      13.48961     13.57459      6.75868        -1.467838      0.513654      0.216704
Ti       1.83466      1.84073     11.01362         0.366852      0.478033      1.003616
Ti       1.87563     13.46006     11.16553        -0.408034     -0.904089     -0.705119
Ti      13.38829      1.99350     10.94897         0.415913      0.717302     -0.126586
Ti      13.39749     13.55043     11.03322         0.157584      0.999961     -0.560015
Ti       1.82884      5.81327      2.37884         1.336496      0.721310     -0.776172
Ti       1.94995      5.76005     15.46911        -0.752115     -0.492559      1.363837
Ti      13.39630      5.92086      2.42226        -0.067924      0.767476     -0.234486
Ti      13.47045      5.97591     15.48816         0.397382     -0.218733      0.058015
Ti       1.93729      5.73788      6.72246        -0.491878     -0.104832      0.712482
Ti      13.41750      5.89431      6.73966         1.117225      1.099037     -0.752809
Ti       1.95419      5.68799     11.07832        -0.732932      0.608968      0.078441
Ti      13.45492      5.94644     11.04079        -0.090514     -0.564177      0.328463
Ti       1.87634      9.60043      2.30069         1.320595      0.184776      2.644757
Ti       1.88034      9.61662     15.40282        -0.131977      0.990009     -0.024459
Ti      13.46396      9.77728      2.34782        -0.812085     -0.116902      0.332911
Ti      13.42860      9.73837     15.30337        -0.280307      1.139483      0.892553
Ti       1.91984      9.60518      6.85091        -0.026877     -0.422968     -1.171294
Ti      13.41908      9.74739      6.75514         0.934203     -0.212150     -0.064892
Ti       1.97620      9.65975     11.06422         0.227074     -1.094484     -0.082894
Ti      13.47833      9.80831     11.04275        -0.206278     -0.075800      0.105400
Ti       5.78928      2.04148      2.47008         0.510505     -0.908436      0.363951
Ti       5.64536      1.94498     15.36868         1.200221      0.792952      0.412364
Ti       5.76699     13.49641      2.27186        -0.062252     -0.626749      1.081235
Ti       5.71643     13.52926     15.51009         0.353872     -1.052778      0.288280
Ti       5.78966      1.97172      6.59807        -0.767149      0.236810     -0.535628
Ti       5.74068     13.44368      6.64633        -0.311260      1.137385      0.297773
Ti       5.68179      2.02014     10.99569         0.327473      0.195671      0.422166
Ti       5.66860     13.49435     11.16937         1.377650      0.006520     -0.219371
Ti       5.65307      5.82400      2.28985         0.778492      0.554447      1.267562
Ti       5.73718      5.75501     15.35273         0.408474      0.202501      0.084823
Ti       5.75334      5.83858      6.62279        -0.679205     -0.394560     -0.561131
Ti       5.64576      5.82448     11.03061         1.614125     -0.541829      0.876004
Ti       5.69619      9.57410      2.35423        -0.146593      0.810645      0.668790
Ti       5.59005      9.66204     15.41621         1.327972      0.375860     -1.783980
Ti       5.77200      9.63846      6.70938        -0.931723     -0.502877     -0.669737
Ti       5.76595      9.61377     11.12875        -0.428176      0.205025     -0.741453
Ti       9.60590      2.05071      2.32841         0.339066     -0.494858      0.728211
Ti       9.62538      2.06846     15.37374        -0.333501      0.891945     -1.217398
Ti       9.55831     13.46905      2.35349         0.604800      0.752314     -0.624834
Ti       9.59979     13.64599     15.42659         0.007393      0.095831      2.485860
Ti       9.58235      2.03492      6.71850        -0.555643     -0.443521     -0.503174
Ti       9.61429     13.53400      6.69645        -0.122839      0.570496     -0.185362
Ti       9.60369      2.10665     11.00491        -0.439578      0.528810      0.114484
Ti       9.53498     13.55264     11.01897         0.140403      1.269861     -0.795623
Ti       9.58809      5.87825      2.29815        -0.450613     -0.778036      0.723161
Ti       9.59194      5.89216     15.51670        -0.793544     -0.724604     -1.623428
Ti       9.52708      5.83377      6.77502         1.151367      0.444061     -0.634026
Ti       9.60346      5.96093     11.07917        -1.406757     -1.509944      0.234964
Ti       9.62739      9.62795      2.27381        -0.967760      0.681965      2.009895
Ti       9.54934      9.65353     15.45388         0.904033      0.614609     -0.777124
Ti       9.55218      9.64910      6.88215         0.469244      0.899084     -0.574991
Ti       9.57416      9.71329     11.03285         0.429641      0.148667      0.023444
O       1.90239      1.91323      0.85648         0.218338      0.497859     -1.024451
O       1.96232      2.07277     13.71254        -0.231833     -0.453047     -1.976697
O       1.78772     13.52906      0.55769         0.524749     -0.621727     -0.462810
O       1.93626     13.46743     13.65483        -0.293000      0.073475     -0.307742
O      13.52330      2.16814      0.75921        -0.121854     -0.166846     -1.342061
O      13.34598      2.15628     13.69793         0.021394     -0.228912     -1.346076
O      13.36484     13.66100      0.58733         0.108141     -0.267002     -0.992599
O      13.43996     13.67332     13.62666        -0.022588      0.086686     -0.594002
O       1.95413      1.88287      4.84651        -0.406253     -0.048637     -0.498348
O       2.01077     13.35973      4.94504        -0.867205     -0.324852     -1.497355
O      13.45617      1.97758      4.96434        -0.041514      0.270741     -0.906054
O      13.39003     13.55033      4.99525         0.485064      0.022202     -0.483863
O       1.93603      1.77669      9.33532        -0.183886     -0.162836     -2.039444
O       1.83399     13.27564      9.43648         0.221811      0.435945     -0.303123
O      13.54246      2.06726      9.18727        -0.616777     -0.080275      0.096724
O      13.42309     13.50823      9.24489         0.115481      0.054080      0.976044
O       2.06385      5.81736      0.60666        -0.774694      0.196502      0.392019
O       1.91733      5.76764     13.72805        -0.139181      0.108244     -0.955475
O      13.42816      5.93847      0.65126        -0.192341      0.047360     -0.251188
O      13.57949      5.98734     13.74562        -0.291540     -0.037328     -0.899896
O       1.72690      5.90261      5.00652         0.429987     -0.273414     -0.186162
O      13.49969      5.92632      4.98205         0.102520     -0.082703     -0.457846
O       1.88760      5.80373      9.38048         0.216068      0.021164     -1.142760
O      13.43805      6.02427      9.32625        -0.137064     -0.275297     -0.679353
O       1.88164      9.68848      0.63273        -0.203385     -0.294116     -3.082755
O       1.94622      9.64205     13.66473         0.051507     -0.250014     -1.090123
O      13.34203      9.78307      0.60716         0.619720      0.073396     -0.479369
O      13.49656      9.64411     13.57500        -0.137928      0.431420     -0.511946
O       1.84316      9.59648      5.04283         0.055090      0.020198      0.888690
O      13.40606      9.87063      4.93127        -0.084476     -0.170581      0.617948
O       2.06859      9.58357      9.30365        -0.316959      0.374083     -0.474609
O      13.45320      9.71676      9.28996         0.000428      0.261739      0.326892
O       5.60233      1.91264      0.74024         0.142678      0.108853     -1.478800
O       5.64202      2.07159     13.63152        -0.033054     -0.298682      0.116816
O       5.81114     13.51485      0.54761        -0.254981      0.294699     -1.677299
O       5.83423     13.46735     13.79923        -0.147721      0.374068     -1.973279
O       5.78556      1.94684      4.84703         0.059138      0.038921     -0.469388
O       5.73103     13.54303      4.93830         0.451772     -0.271423     -0.702053
O       5.57900      2.06196      9.23354         0.323022     -0.102450     -0.345701
O       5.55945     13.47142      9.44332         0.557299      0.080674     -0.837775
O       5.55627      5.81593      0.57198         0.255937      0.205686     -1.087665
O       5.82446      5.77377     13.58093        -0.355565      0.139444      0.270115
O       5.82857      5.92236      4.86930        -0.209718     -0.326026      0.382928
O       5.73984      5.52643      9.32196        -0.303424      0.461174     -0.976531
O       5.70694      9.61813      0.63992        -0.124742     -0.167350     -2.064093
O       5.71442      9.66820     13.60153         0.015605     -0.331651      1.235750
O       5.75388      9.58175      4.94917         0.307695      0.154854      0.607297
O       5.64472      9.62552      9.33441         0.181756      0.725235      0.140378
O       9.65239      2.14831      0.61152        -0.291948      0.015712     -1.717615
O       9.70062      2.07407     13.58872         0.019908     -0.089262      0.356947
O       9.81454     13.56413      0.61797        -0.724128     -0.123962     -0.675629
O       9.55353     13.70948     13.76714         0.165498     -0.380507     -3.247158
O       9.50139      2.09612      4.98436         0.135064     -0.384095     -0.390328
O       9.53357     13.62963      4.93083         0.221252     -0.400949     -0.513426
O       9.61850      2.09024      9.25216         0.026934      0.052823     -0.578554
O       9.59022     13.70787      9.28477        -0.314563     -0.659816     -0.134822
O       9.69639      5.75038      0.56878        -0.259099      0.258984     -0.460110
O       9.58839      5.83306     13.74231        -0.035931      0.591554     -0.459164
O       9.59153      5.85348      5.04390        -0.317302      0.283556     -0.718901
O       9.49643      5.87283      9.34679         0.569413      0.206812     -1.624366
O       9.59580      9.66910      0.59845         0.212225     -0.055807     -2.321322
O       9.63014      9.57009     13.71974        -0.242550      0.191862     -0.814947
O       9.53907      9.68664      5.13027         0.436053     -0.096680     -0.647319
O       9.46760      9.73654      9.27955         0.775314     -0.055723     -0.587786
O       3.87742      2.00148      2.92524        -0.540811     -0.044632     -0.274453
O       3.82994      1.92259     15.90046        -0.498244     -0.053566     -0.142078
O       3.90476     13.47114      2.71962        -0.955087      0.050868     -0.198417
O       3.82354     13.43798     15.86773        -0.052666      0.392130      0.178685
O      15.31240      2.13635      2.89189         1.248228      0.155626      0.306235
O       0.01056      1.87312     15.79899        -0.214692      0.268438      0.078296
O       0.01545     13.27227      2.68224        -0.374096      0.400071      0.571482
O      15.33873     13.70215     15.87765        -0.074791     -0.455170     -0.243517
O       3.77640      1.88518      6.98171         0.247205      0.082349      0.178384
O       3.77118     13.55478      6.97986         1.508288     -0.908331      0.764498
O      15.31132      1.86618      7.13767         0.794669      1.466181     -0.737415
O      15.33904     13.56588      7.17778         0.298715     -0.255925     -0.313790
O       3.76923      1.88733     11.44421         0.131647     -0.213435      0.263531
O       3.83729     13.54224     11.51046        -0.625558     -0.096133      0.302352
O      15.31622      2.09684     11.50492         0.426855     -0.133862     -0.014977
O      15.34159     13.64858     11.56564        -0.332027     -0.370122     -0.191249
O       3.84053      5.82959      2.74309        -1.037637     -0.052712      0.726599
O       3.81729      5.75737     15.79503        -0.082740      0.527612     -0.203191
O      15.33960      6.01112      2.75037        -0.150852     -0.090232     -0.109329
O       0.00583      5.75952     15.96032         0.088481      0.428451      0.033888
O       3.86553      5.66096      7.06327        -0.943126      0.233490     -0.131675
O       0.01108      5.61457      7.30583         0.394930      0.968197     -0.482427
O       3.79523      5.77305     11.46782        -0.183651      0.321411      0.444191
O      15.33910      6.04357     11.47779         0.303329     -0.169655      0.154308
O       3.77165      9.57171      2.78532         0.354222      0.146662      0.000805
O       3.76460      9.61530     15.78656         1.069442      0.299971      0.278903
O       0.03477      9.67959      2.78560        -1.317481     -0.201212     -0.248123
O       0.02419      9.76759     15.65996        -1.647386     -0.727562      0.847397
O       3.86100      9.63028      7.09999         0.509689      0.155883      0.161760
O      15.35586      9.84291      7.23549         0.008235     -0.339552     -0.243180
O       3.87762      9.73170     11.57460        -0.325227     -0.681806     -0.327626
O       0.05446      9.69775     11.49486        -0.833461     -0.582546     -0.365094
O       7.69466      1.90456      2.69856         0.043448      1.145746      0.172812
O       7.61945      2.11073     15.70011        -0.160981     -0.678858      0.460201
O       7.66192     13.39622      2.66299         0.967334      0.457406      0.320493
O       7.72175     13.54648     15.85331        -0.408197      0.341976      0.511949
O       7.59169      2.02036      7.03261         1.243430     -0.164131      0.424838
O       7.62425     13.52235      7.24809         0.083944     -0.274575     -0.667673
O       7.65378      2.19957     11.31815        -0.109453     -0.619324      0.320028
O       7.69801     13.54767     11.59698        -0.896624      0.245904     -0.351306
O       7.63716      5.93946      2.68450         0.897902     -0.834882      0.003523
O       7.63405      5.94333     15.84493        -0.240220     -0.401979      0.055663
O       7.65077      5.94306      7.05112         0.142304     -0.494827      0.388196
O       7.59963      5.93303     11.32572         0.578123     -0.348134      0.862777
O       7.62411      9.65824      2.71647         1.357339     -0.070357      0.254721
O       7.71082      9.61534     15.68865        -1.436655      0.107987      0.590848
O       7.67145      9.61164      7.23917        -0.481443      0.218372     -0.317819
O       7.74164      9.53041     11.29488        -1.110302      0.740440      1.004766
O      11.50248      2.23490      2.77900         0.561603     -1.349469      0.205161
O      11.54629      2.15723     15.89765        -0.849951     -0.117188     -0.182257
O      11.52790     13.67356      2.70005        -0.810530     -0.458359      0.605016
O      11.53882     13.82509     15.80449        -0.212346     -0.897155     -0.022725
O      11.47822      1.97475      7.03759        -0.009889      0.525108      0.297992
O      11.50740     13.63896      7.06826         0.085868     -0.252971      0.265257
O      11.54546      2.03816     11.30011        -0.515336     -0.114194      0.336889
O      11.44001     13.60024     11.38099         0.932095     -0.090884      0.551515
O      11.46712      5.84678      2.85211         0.336859      0.637375     -0.183982
O      11.44892      5.88580     15.85139         1.660096      0.275560      0.025433
O      11.58556      5.87031      6.96437        -1.606925      0.013862      1.190463
O      11.54569      5.89901     11.43195         0.627469      0.342347      0.055587
O      11.49110      9.67655      2.79351         0.307419      0.032197      0.111256
O      11.55601      9.63922     15.72264        -0.301812      0.766492      0.186987
O      11.56270      9.77547      7.26476        -0.664613     -0.564367     -0.496923
O      11.50914      9.80350     11.43786         0.197692      0.239380      0.016224
O       1.94697      3.96841      2.84632        -0.179898     -0.889677      0.111915
O       1.88926      3.83676     15.91670         0.148798     -0.326016     -0.256596
O       1.95987     15.33323      2.64455        -0.296442      0.024425      1.114610
O       1.89372     15.29356     15.76399         0.269136      2.303701      0.258809
O      13.41393      4.05101      2.75475         0.431319      0.144307      0.571063
O      13.50156      4.11180     15.81250        -0.190154     -1.166874      0.289489
O      13.51270     15.49731      2.73777        -0.205087      0.204868      0.513631
O      13.45901      0.22410     15.87189         0.004877      0.563865     -0.248686
O       1.84964      3.73517      7.03441        -0.035307      0.002380     -0.177341
O       1.89640     15.21491      7.00527        -0.452668      1.291707      0.400873
O      13.42543      3.99555      7.12103         0.108028     -1.021087     -0.027089
O      13.43127     15.50301      7.08790        -0.059233     -0.517161      0.192694
O       1.97317      3.78858     11.26351        -0.625635      0.255200      0.861607
O       1.84653     15.33694     11.55033         0.315249      0.072351      0.044999
O      13.47542      3.89904     11.44781        -0.064073      1.751840     -0.051225
O      13.45020     15.50074     11.37776        -0.015440     -0.446191      0.295212
O       1.94409      7.72343      2.93817        -0.936034     -0.332417     -1.003414
O       1.80867      7.78757     15.82077         0.321614     -1.524043      0.150129
O      13.44492      7.88669      2.77312         0.004492      0.251679      0.080519
O      13.40685      7.88515     15.83184         0.772490      0.289912      0.229286
O       2.00700      7.68399      7.26897        -0.574067     -0.549862     -0.375946
O      13.43461      7.81237      7.07262         0.099441      1.000578      0.270571
O       2.00341      7.76971     11.44169        -0.419572     -0.883355      0.472982
O      13.33751      7.92272     11.49299         1.315956     -0.602194     -0.642234
O       2.01611     11.50177      2.71467        -0.552414      0.387047     -0.176536
O       1.98889     11.54982     15.77324        -0.535181      0.164991      0.451243
O      13.34646     11.74266      2.68852         0.198419     -1.544716      0.539691
O      13.42384     11.76164     15.71591        -0.305293     -0.462837      0.143175
O       1.95036     11.51372      7.18526        -0.070733     -0.783204      0.274836
O      13.38722     11.65705      7.15152         0.280357      0.097980     -0.158816
O       1.95807     11.48185     11.50866        -0.327701      1.486368      0.213320
O      13.40118     11.71177     11.54110         0.032107     -0.125665     -0.107824
O       5.70530      3.90521      2.72154         0.385229      0.338410      0.307720
O       5.78906      3.95020     15.89481        -0.612737     -1.097108     -0.348209
O       5.87442     15.38596      2.70919        -0.718851      0.127675      0.311084
O       5.73753     15.38554     15.83859         0.053348      1.602095      0.126166
O       5.75620      3.87307      6.97899        -0.024016      0.177997      0.196826
O       5.76538      0.09729      7.06804        -0.319934     -0.723222     -0.089635
O       5.63697      3.86553     11.51403        -0.083110      0.154288     -0.032179
O       5.83838      0.15200     11.52699        -0.608622     -0.754453     -0.253386
O       5.73232      7.72589      2.74203        -0.074332     -0.046612      0.085341
O       5.70402      7.73444     15.75188        -0.278611      0.420560      0.068955
O       5.65807      7.64533      7.21573         0.442994      1.125393     -0.299403
O       5.73563      7.74260     11.21468        -0.590155     -0.159842      0.874753
O       5.79049     11.57351      2.62916        -0.372282     -0.340115      0.672031
O       5.86389     11.60953     15.81618        -0.765038     -1.437849      0.167086
O       5.82698     11.60513      7.04700        -0.270188     -1.211851      0.282103
O       5.72898     11.59710     11.58343         0.612069      0.289890     -0.333512
O       9.65179      3.91807      2.83029        -1.110392      1.394884     -0.079442
O       9.50452      3.97702     15.67827         0.140303     -0.441562      1.049356
O       9.60279     15.48294      2.58393         0.017316     -0.413403      0.803782
O       9.48610      0.23256     15.70771         0.439286     -0.325609      0.834636
O       9.58139      3.96327      6.98849         0.016282     -0.189812      0.920206
O       9.52982     15.42784      7.12646        -0.187765      1.078040     -0.019205
O       9.66701      4.04439     11.37627         0.078506     -0.629678      0.573850
O       9.54168     15.49365     11.39681         0.028414      0.623101      0.489373
O       9.56254      7.74418      2.80291         0.644769      0.491344     -0.291763
O       9.60280      7.77757     15.94153        -0.207868      0.492938     -0.073294
O       9.66289      7.81397      7.25189        -0.091848     -0.662179     -0.163809
O       9.68264      7.81106     11.45454         0.060685      0.529184      0.159035
O       9.70064     11.57961      2.64199        -0.291741     -0.270118      0.564801
O       9.54614     11.67849     15.74254         0.795836     -0.611828      0.101755
O       9.66395     11.70732      7.10125        -0.594941     -1.528584      0.497476
O       9.56696     11.67474     11.41608        -0.114524     -0.778405      0.323964
