  # total energy = -7881.00111116 
CRSYTAL
PRIMVEC
    15.3600000000000000    0.2300000000000000    0.0000000000000000
     0.0000000000000000   15.3600000000000000    0.0000000000000000
     0.0000000000000000    0.0000000000000000    17.440000000000000
PRESSURE
2.00171 2.33645 -1.23778 0.093728 0.24412 -1.6308
PRIMCOORD
320 1
Pb       3.74091      3.84528      4.29679         0.421708     -0.096240      1.389480
Pb       3.84517      3.91900     17.35018        -0.672839     -0.425656      0.017444
Pb       3.71369      0.08653      4.29172         0.753472     -0.285984      0.760829
Pb       3.77135     15.41405     17.21191         0.001103     -0.553779      1.775142
Pb      15.29860      4.02037      4.36791        -0.079902      0.088764      0.090515
Pb      15.29953      4.07963     17.31586         0.188377     -0.440382     -0.069608
Pb      15.35066      0.31944      4.25109         0.367719     -0.848205      1.409928
Pb       0.01598     15.31286     17.31969        -0.469975      0.033288      0.415674
Pb       3.79125      4.03584      8.71912         0.443755     -0.304969     -0.064508
Pb       3.74146      0.05776      8.72258        -0.117428      0.372530      0.127467
Pb      15.34697      4.09628      8.82616        -0.301712      0.052482     -0.117516
Pb      15.23910      0.31297      8.72596         0.528572     -0.398658      0.499848
Pb       3.86978      3.96187     13.06564         0.313494     -0.245530      0.063538
Pb       3.84512     15.41378     12.97648         0.316225      0.268338      0.832130
Pb      15.33441      4.05403     13.03174        -0.427027     -0.074524      0.306162
Pb      15.30993     15.51278     13.00945        -0.201307      0.490274      0.782613
Pb       3.84811      7.71042      4.22096        -0.166586      0.554472      1.674788
Pb       3.84940      7.67501      0.00783        -0.364580      0.311818      0.327296
Pb       0.00350      7.59243      4.22897        -0.354691      0.758764      1.477313
Pb       0.05617      7.52007     17.39097        -0.226446      0.538218      0.295932
Pb       3.82749      7.83260      8.58211         0.270726     -0.269413      0.751917
Pb      15.30706      7.99380      8.54441        -0.205612     -0.275249      1.239635
Pb       3.90422      7.77623     13.05987         0.537644      0.491647     -0.017806
Pb      15.31996      7.93500     13.02825        -0.163227      0.290720     -0.004139
Pb       3.84180     11.56068      4.37271        -0.179556      0.467495     -0.038713
Pb       3.90748     11.50705     17.37248        -0.801740      0.421819      0.608085
Pb      15.34491     11.68219      4.29772         0.200651      0.395175      0.373341
Pb       0.04319     11.45234     17.31937        -0.565443      0.356503      0.951060
Pb       3.76348     11.55070      8.65599        -0.209590      0.380854      0.844935
Pb      15.26465     11.75195      8.60178         0.281498      0.369761      1.058109
Pb       3.92959     11.56372     13.04923        -0.130952     -0.651616      0.644523
Pb      15.28077     11.77093     12.97153         0.143526     -1.514014      1.593156
Pb       7.62756      3.85003      4.32789         0.142795      0.023824      0.373054
Pb       7.62807      3.96538      0.01933         0.517328     -0.385731      0.023798
Pb       7.59669      0.17666      4.31644        -0.043810     -0.546117      0.218634
Pb       7.61662     15.37508     17.38062         0.451692      0.375498      0.982328
Pb       7.78216      3.92148      8.69676        -0.756169      0.369322      0.844886
Pb       7.74806      0.19393      8.71138        -0.387783     -0.094027      0.319735
Pb       7.73366      3.91294     13.03862        -0.168444      0.565929      0.111280
Pb       7.69838     15.40964     13.05311         0.027269      0.529139      0.364898
Pb       7.56277      7.76850      4.25442         0.126043     -0.107805      1.033684
Pb       7.71081      7.69426      0.04062        -0.200419      0.202841      0.483286
Pb       7.59340      7.86917      8.56459         0.353602     -0.285901      1.061743
Pb       7.65240      7.71982     13.03067        -0.189312     -0.140031      0.675412
Pb       7.62573     11.65874      4.34433         0.250488     -0.006626      0.202519
Pb       7.66758     11.65189      0.00827         0.394083     -0.082210      0.958114
Pb       7.65777     11.65388      8.55653         0.138206      0.060759      0.939695
Pb       7.65856     11.49239     12.94397         0.264168      0.085463      1.414719
Pb      11.54833      3.91213      4.18735         0.233781      0.375125      0.430024
Pb      11.40359      3.89743     17.28354         0.298583      0.646087      1.071779
Pb      11.42605     15.52125      4.37331         0.225051      0.102951     -0.057021
Pb      11.48091     15.46531     17.30074         0.230856      0.257606      1.620248
Pb      11.51819      4.00698      8.67867         0.509119      0.307459      1.053275
Pb      11.54325      0.18554      8.68513        -0.244515     -0.284238      0.999970
Pb      11.44612      3.83725     13.03182         0.182876      0.660786      0.265159
Pb      11.46786     15.43497     13.08276         0.174383      0.385935      0.374657
Pb      11.61711      7.71789      4.27352        -0.154070      0.347425      0.482187
Pb      11.51618      7.76047     17.42554         0.224071     -0.308567      0.642401
Pb      11.45168      7.89359      8.54335         0.281047     -0.212776      1.248408
Pb      11.40482      7.76576     13.06390        -0.100300      0.188277      0.368077
Pb      11.46623     11.83501      4.26059         0.285906     -0.600106      0.777370
Pb      11.52456     11.48265      0.05497         0.509114      0.768284      0.544395
Pb      11.49795     11.65911      8.69248         0.079510      0.382693      0.282227
Pb      11.50685     11.57855     13.07012        -0.092084     -0.290302      0.790139
Ti       1.95620      2.00043      2.41737         0.179033     -0.622767     -1.925058
Ti       1.90710      1.89358     15.31862        -0.936673      1.325998     -1.477631
Ti       1.94053     13.48108      2.34350        -0.054355      0.101092      0.471942
Ti       1.88027     13.45109     15.39373        -0.414980     -0.938802     -0.748452
Ti      13.48611      2.06788      2.27573        -0.242821      0.747499     -1.172861
Ti      13.40993      2.11623     15.38206        -0.384291     -0.241517      0.203327
Ti      13.47222     13.65111      2.33873         0.452748      0.357820     -1.713548
Ti      13.30879     13.60828     15.45823         1.500245     -0.408895     -1.031380
Ti       1.90206      1.99528      6.74733         0.498458     -0.784371     -0.751537
Ti       1.85844     13.40742      6.67936         0.613135      1.444217     -1.602491
Ti      13.45500      2.16632      6.78439        -0.092201      0.034735     -0.183895
Ti      13.44199     13.66874      6.63811        -0.335946      0.258799      1.687525
Ti       1.93532      2.01522     11.16587        -0.513847     -0.635302      0.192449
Ti       1.95605     13.47010     11.24527        -0.723042     -0.499628     -1.758829
Ti      13.39033      2.09136     11.13504         0.553918      0.068035     -0.999435
Ti      13.37047     13.58539     11.17668         0.133753      0.441052     -1.729344
Ti       1.86793      5.82925      2.37238         0.906229     -0.518306     -2.044583
Ti       1.91146      5.85541     15.27333        -0.380259     -1.127700      1.641038
Ti      13.49136      5.98021      2.27569        -0.796870     -1.114734     -0.897224
Ti      13.40832      6.00257     15.36750         0.019754     -1.389515     -0.203765
Ti       1.84504      5.82082      6.74019         0.270155     -0.181445      0.567149
Ti      13.39860      5.97719      6.69768         0.553176     -0.238550     -0.208656
Ti       1.95459      5.81681     11.12032        -0.139846     -0.074227      0.128842
Ti      13.47060      5.99378     11.06355        -1.575387     -0.388275      0.206667
Ti       1.90419      9.67799      2.41708        -0.243618      0.110773     -1.354782
Ti       1.85806      9.63479     15.41783         1.088111      0.414530     -1.168040
Ti      13.44913      9.83644      2.39534         0.142603     -0.269386     -1.655037
Ti      13.43743      9.76320     15.49776         0.284031      0.320754     -1.152475
Ti       1.83283      9.63221      6.68251         0.555713     -0.237497     -1.532319
Ti      13.38255      9.85795      6.62317        -0.156150     -0.825363     -2.504647
Ti       1.99279      9.62467     11.12053        -0.829976      0.097844     -1.809907
Ti      13.38374      9.74422     11.05614         0.708943     -0.115112      0.109616
Ti       5.78930      1.97472      2.28990        -0.704357     -0.783283      0.435266
Ti       5.73091      1.91171     15.35967         0.059109      0.682263      0.111520
Ti       5.78361     13.50295      2.33619        -0.114862      0.539007     -0.641900
Ti       5.79695     13.47881     15.46881        -0.461887     -0.551410     -1.002305
Ti       5.78079      2.04399      6.74587        -0.762544     -0.102187      0.031435
Ti       5.67049     13.58173      6.79128         0.439135      0.928927     -0.877321
Ti       5.78126      2.05490     11.12200         0.053975     -0.221401     -1.686934
Ti       5.79792     13.50523     11.05661        -0.123984      0.590554     -0.817699
Ti       5.65725      5.71475      2.40814         0.905295      0.910121     -0.345018
Ti       5.74078      5.80839     15.48132         0.339756      0.225093     -1.614693
Ti       5.76182      5.84418      6.64547        -0.404385      0.145774      1.938765
Ti       5.75122      5.82047     10.89563         1.005609      0.567082     -0.217858
Ti       5.73605      9.69390      2.38818         0.064125     -0.077084     -0.820818
Ti       5.77401      9.67184     15.58406         0.527509     -0.989815     -2.073733
Ti       5.69094      9.76310      6.68126         0.798247     -0.873445     -0.024403
Ti       5.86368      9.67944     10.93608        -0.509561     -0.818703     -0.720491
Ti       9.62425      2.05191      2.29426         0.046935     -0.617572     -2.185982
Ti       9.51262      1.95412     15.45501         0.863735      0.667555     -0.715511
Ti       9.62714     13.56202      2.35261        -0.597846      0.403012     -1.110556
Ti       9.64821     13.45967     15.49489        -0.846448      0.405987      0.261997
Ti       9.62999      2.19435      6.70840         0.341537     -1.560309      0.158624
Ti       9.57628     13.60461      6.77905         0.286053      0.581508     -1.401132
Ti       9.58913      2.03077     11.03786         0.126078      0.307960     -0.462545
Ti       9.57641     13.52310     11.15555         0.394659      0.454903     -1.516818
Ti       9.54220      5.87774      2.41373         0.611697     -0.763094     -1.513175
Ti       9.54666      5.88761     15.44665        -0.158748     -0.458944     -0.841407
Ti       9.55912      5.91008      6.68387         0.107184      0.507653     -0.484200
Ti       9.61467      5.89367     10.98020        -0.348587     -0.011152      0.834905
Ti       9.65663      9.67506      2.42225        -0.604153      0.345232     -0.315790
Ti       9.63403      9.68741     15.67246        -1.113480     -0.284585     -2.986699
Ti       9.57191      9.74239      6.62481        -0.286037     -0.141415      1.383775
Ti       9.60711      9.71448     11.01577         0.122314     -0.839257     -2.049330
O       1.94747      1.91995      0.60705         0.035813      0.288084      1.039096
O       1.89611      1.83688     13.51119         0.206852      0.537742      1.809823
O       1.89554     13.60249      0.59931        -0.005541     -0.356647     -0.040080
O       1.83922     13.42675     13.60616         0.285344     -0.119765      0.435980
O      13.62293      2.14579      0.48486        -0.411174     -0.401947      1.131315
O      13.23259      1.97838     13.63525         0.304427      0.342155      0.300069
O      13.45795     13.68408      0.51346         0.141937     -0.046015      2.091861
O      13.31846     13.63364     13.61056        -0.001090     -0.486838      1.259328
O       1.98203      2.04633      4.89596        -0.285565     -0.244336      1.608944
O       1.97241     13.45358      4.84564        -0.047235     -0.201532      1.679406
O      13.44123      2.09619      5.01699        -0.141848      0.374682      0.086724
O      13.36662     13.65548      4.91041        -0.074559      0.035002     -0.236870
O       1.82892      1.84003      9.42833         0.040838      0.344568     -0.557452
O       1.80072     13.39732      9.45548         0.360660      0.148644      1.278610
O      13.53543      2.12928      9.33364        -0.218937      0.081940      0.531016
O      13.51104     13.58851      9.34544        -0.267058     -0.208234      1.766626
O       1.99578      5.91495      0.51842        -0.363123     -0.470131      1.953154
O       1.96312      5.74175     13.54140        -0.048484      0.524764     -0.528271
O      13.62239      5.91702      0.49301        -0.422754      0.355714      0.871408
O      13.47466      5.82324     13.62052        -0.201537      0.873510      0.430742
O       1.76590      5.77410      5.01693        -0.023512     -0.005300     -0.566513
O      13.54271      5.91937      4.90533        -0.381587      0.000558      0.282151
O       1.92814      5.80886      9.38805        -0.080559      0.177511     -0.365359
O      13.45609      6.13478      9.32560        -0.018747     -0.425947     -0.218323
O       1.88535      9.71186      0.62816         0.267798     -0.397211      0.682746
O       2.17453      9.61286     13.64432        -0.727607     -0.200272      0.481438
O      13.48164      9.76077      0.55106        -0.306074     -0.002145      1.504473
O      13.31836      9.86761     13.71404         0.224917     -0.582847      0.624568
O       1.81417      9.50703      4.86330         0.325523      0.672269      1.294866
O      13.34974      9.72099      4.75091         0.301798      0.611062      2.115846
O       1.82902      9.67568      9.26132         0.536398     -0.001854      1.326594
O      13.37767      9.77143      9.29907         0.186080      0.144525     -0.431823
O       5.64119      1.92888      0.55330         0.105645      0.244500     -0.282336
O       5.68590      2.00038     13.60035         0.236572     -0.194859      0.733187
O       5.77827     13.48180      0.55137        -0.069655      0.017460      0.481371
O       5.74213     13.42118     13.69189         0.386865      0.157880      0.511732
O       5.79758      1.97615      4.96088         0.065142      0.248966      0.703011
O       5.84045     13.60998      5.02650        -0.256428     -0.081669      0.295589
O       5.88623      1.98747      9.31994        -0.252055      0.351577      0.855199
O       5.76141     13.53384      9.27890         0.101374      0.010589      0.864814
O       5.76635      5.92164      0.62752        -0.522855     -1.009030      0.580565
O       5.74796      5.90122     13.66693        -0.259686     -0.234742      1.864318
O       5.77937      5.86516      4.91431        -0.076178     -0.248549     -0.421081
O       5.69457      5.95465      9.09635         0.156743     -0.521482      1.518888
O       5.64744      9.78218      0.58207         0.258119     -0.387412      0.923795
O       5.85336      9.49212     13.70389        -0.430994      0.748294      2.213917
O       5.80450      9.57596      4.93598        -0.512508      0.666267     -0.224993
O       5.85496      9.65942      9.12763        -0.324090      0.563387      1.140561
O       9.57715      2.00272      0.44179        -0.095940      0.281767      1.890078
O       9.67095      2.01430     13.63346        -0.489088     -0.057367      1.535534
O       9.64792     13.57912      0.55787        -0.320613     -0.091482      1.577291
O       9.59315     13.48508     13.75692        -0.091825      0.051561     -0.463313
O       9.62412      2.17874      4.93500         0.231461     -0.301571      0.503203
O       9.62182     13.60089      4.90281         0.133303      0.040571      1.740866
O       9.57401      2.26144      9.22368        -0.015310     -0.913533      1.153886
O       9.56553     13.56767      9.37114         0.065925     -0.086711      0.603322
O       9.56814      5.79552      0.57163        -0.514255      0.271230      1.922002
O       9.45035      5.95720     13.66328         0.499012     -0.396030      0.960750
O       9.59708      5.96512      4.89471         0.045292     -0.498770      0.690993
O       9.65334      5.87326      9.21646        -0.158251      0.082743      0.646616
O       9.65366      9.62050      0.63226         0.087380      0.266601      0.459721
O       9.55339      9.60030     13.83393         0.256980      0.466005      1.347803
O       9.56735      9.69294      4.91319         0.088092      0.046971     -0.591768
O       9.61891      9.62981      9.15593        -0.017876      0.500806      2.108680
O       3.88143      1.95642      2.87685        -0.839192      0.059758     -0.614102
O       3.79743      1.81252     15.79786         0.403541      0.977855     -0.709205
O       3.94781     13.36888      2.78433        -1.257231      0.608166     -0.122387
O       3.75733     13.41156     15.73171         0.916892      0.148607      0.153014
O       0.00930      1.89918      2.86954         0.068417      0.509174     -0.746482
O      15.26660      2.14625     15.69508         1.042818     -0.336100     -0.040490
O       0.04946     13.43635      2.84713        -0.378395      0.066285     -0.672806
O      15.25039     13.70094     15.84824         0.924132     -0.461809     -0.422492
O       3.79357      1.95326      7.29149        -0.435809      0.375829     -0.689077
O       3.73023     13.54913      7.19064         0.811831      0.010609     -0.127804
O      15.33261      2.17880      7.15435         0.604854      0.104265     -0.075725
O       0.01926     13.39872      7.09813        -1.028672     -0.001199     -0.282070
O       3.83499      2.09143     11.51052        -0.030345     -0.476365     -0.157964
O       3.86161     13.32907     11.53841         0.118120      0.802230     -0.517321
O      15.27130      2.07696     11.57005         0.652007      0.093544     -0.096011
O      15.29787     13.50125     11.66112         0.183052      1.452223     -1.416285
O       3.80886      5.86695      2.89120        -0.339187     -0.802830     -0.927866
O       3.77949      5.81436     15.86596         0.478060      0.319844     -0.401730
O       0.02785      5.76810      2.72144        -0.444480     -0.469923     -0.173889
O       0.02113      5.67980     15.81613        -0.023722      0.812517     -0.545297
O       3.82101      5.99490      7.12543        -0.180431     -0.770779     -0.500476
O      15.28700      6.00266      7.26983         0.963999      0.068367     -0.508859
O       3.92884      5.60450     11.37554        -1.333066      1.108049      0.047906
O      15.26091      5.89423     11.44755         2.061300      0.381040      0.268337
O       3.78080      9.67884      2.81238         1.073926     -0.174958     -0.111024
O       3.76891      9.72119     15.88636         1.600649     -0.471416     -0.052554
O       0.00088      9.65517      2.67945        -0.439224     -0.356989      0.438953
O       0.00921      9.63538     15.74962        -0.548228     -0.454461      0.057816
O       3.79996      9.78250      7.13836         0.210367     -0.903590     -0.663938
O      15.29266      9.97713      6.85912         0.363874     -0.385907      0.694057
O       4.00504      9.66195     11.47486        -0.780766      0.040732     -0.381859
O      15.34713      9.74411     11.49133         0.016660      0.382682     -0.035389
O       7.69283      2.06602      2.68583        -0.308626      0.048123      0.074083
O       7.62135      1.92412     15.84903        -0.157436      0.101344     -0.512147
O       7.67913     13.51323      2.79273         0.491143      0.426309     -0.188417
O       7.66820     13.57353     15.97224         0.714159     -0.689088     -0.802098
O       7.72869      2.18995      7.11997        -0.020711     -0.610403     -0.505034
O       7.66222     13.70936      7.25135         0.384577     -0.793006     -0.754328
O       7.69528      2.05773     11.50985         0.114809     -0.597533      0.020644
O       7.72324     13.64917     11.63485        -1.031903     -0.837726     -0.762357
O       7.60195      5.69647      2.86525         0.382925      0.469296     -0.862227
O       7.65867      5.64840     15.86771        -0.904204      1.219993      0.069886
O       7.69058      5.83030      7.18005        -0.026344     -0.157751     -1.013012
O       7.64391      5.75716     11.54931         0.149002      0.218208     -1.093521
O       7.62393      9.62635      2.87838         0.368970      0.512047     -0.949848
O       7.72013      9.76250     16.05686        -0.660807     -0.684270     -0.207022
O       7.64633      9.82982      7.08299         0.563479     -0.063996     -0.576509
O       7.74863      9.69029     11.43132        -0.783117     -0.117718     -0.195444
O      11.55862      2.12639      2.66353         0.147990     -0.670105      0.023055
O      11.45998      2.06576     15.96145         0.383678     -0.153771     -1.209114
O      11.54512     13.64246      2.68867        -0.258173     -0.028355      0.303486
O      11.49109     13.50291     15.98249         0.085588     -0.229981     -0.583528
O      11.59309      2.10521      7.32099        -1.187276      0.473854     -1.167219
O      11.59956     13.60909      7.28580        -0.968932      0.016798     -0.886389
O      11.48520      2.03839     11.51140        -0.539399     -0.014804     -0.409269
O      11.44518     13.47102     11.66955         0.195997      0.546349     -0.980630
O      11.54873      5.88987      2.68022        -0.251923      0.186684      0.023370
O      11.40859      5.98530     15.90954         1.082699     -0.302811     -0.778167
O      11.53242      5.94333      7.15549        -0.301612      0.083060     -0.788457
O      11.47338      5.99115     11.52990        -0.164718     -0.494686     -0.566515
O      11.51936      9.77962      2.84288        -0.250547     -0.224187     -0.678090
O      11.54875      9.64346     15.97021        -0.602261      0.083935     -0.028985
O      11.50072      9.73020      7.05191         0.038781      0.384802     -0.361311
O      11.47484      9.64427     11.45851        -0.192424      0.023572      0.014284
O       1.97087      3.87920      2.83354        -0.522083      0.592850     -0.646152
O       1.87868      3.86554     15.64866         0.630201     -0.502027      0.272761
O       1.93517      0.07767      2.77946         0.113301     -0.694320     -0.193680
O       1.84430     15.38189     15.72086         0.073430     -0.295088      0.152363
O      13.42996      3.99747      2.63079         0.604051      0.311442      0.438763
O      13.43286      4.07079     15.70788        -0.457338     -0.648445      0.335963
O      13.50000     15.55259      2.92702        -0.606610      0.129473     -1.202110
O      13.33783     15.44940     15.80538        -0.046216      1.275350     -0.231888
O       1.87647      3.91444      7.17685         0.171146     -0.353991     -0.029880
O       1.82047     15.38076      7.17953         0.267001      0.368018     -0.428387
O      13.48685      4.11072      7.23609        -0.226533     -0.508746     -0.473896
O      13.30827      0.25062      7.27279         1.369708     -0.725501     -1.238319
O       1.85731      3.87821     11.48279        -0.060218      0.501499      0.020226
O       1.97524      0.07381     11.65993        -0.367263     -1.753385     -1.164268
O      13.36731      3.94376     11.55733        -0.032790      0.963473     -0.351978
O      13.34654     15.51650     11.46211         0.140521     -0.969266      0.070063
O       1.89135      7.64270      2.84379         0.105123      0.762339     -0.713863
O       1.81743      7.75837     15.79902         0.613524     -1.012259     -0.335355
O      13.45134      7.87195      2.70802        -0.016404     -0.358268     -0.303744
O      13.44258      7.82456     15.82404         0.225364      0.279506      0.002977
O       1.92495      7.73546      7.14559        -0.672356      0.672964     -0.342537
O      13.51772      7.89822      6.98430        -0.494449      0.833901     -0.018309
O       1.94772      7.74108     11.53783         0.236391     -1.065890     -0.082502
O      13.49237      7.85913     11.53961        -0.405238      0.190160      0.055390
O       1.92616     11.54826      2.81504         0.029648      0.257357     -0.119273
O       1.85236     11.54157     15.87553         0.159296      0.561073     -0.395683
O      13.45527     11.74990      2.72613        -0.211222      0.114228     -0.012453
O      13.44234     11.61955     15.93182        -0.640561      0.855698     -0.286316
O       2.00190     11.53017      7.08162        -0.733648      0.253319     -0.203004
O      13.38500     11.76802      7.10545        -0.067689     -0.780641     -0.510142
O       1.92134     11.41753     11.57704         0.196056      1.310013     -0.066780
O      13.29699     11.62768     11.54223         0.491322      0.231451     -0.449691
O       5.58165      3.83503      2.81199         0.774416      0.874637     -0.589341
O       5.72063      3.89456     15.84879        -0.462525     -0.725034     -0.146941
O       5.73814      0.11534      2.76139         0.354587     -0.765794     -0.095741
O       5.79474     15.31814     15.86269        -0.532526      1.411807     -0.588399
O       5.62165      3.96592      7.17886         0.402363      0.000004     -0.697423
O       5.73131      0.19740      7.14085         0.199861     -0.689014      0.215336
O       5.76055      3.91034     11.47813         0.352063      0.382988     -0.052437
O       5.70151      0.11527     11.41320         0.124273     -1.152425      0.408889
O       5.69192      7.71916      2.78946         0.250238      0.233220     -0.576648
O       5.79829      7.72164     16.07344        -0.125317      0.226926     -0.974333
O       5.85605      7.85168      7.08936        -0.766518     -0.415697     -0.671115
O       5.81410      7.75838     11.31672        -0.167991     -0.377361     -0.008853
O       5.82360     11.60158      2.78311        -0.195070     -0.602815      0.137708
O       5.94715     11.54983     15.91812        -1.372624      0.403704     -0.544107
O       5.67871     11.70925      7.02055         0.341309     -0.681045      0.244480
O       5.89807     11.59223     11.41730        -0.203127      0.080859     -0.251458
O       9.61796      3.87378      2.77444        -0.158054      1.405854     -0.039623
O       9.52684      3.94964     15.90840         0.172746     -0.690297     -0.627242
O       9.62090      0.19325      2.80849        -0.114303     -0.734717     -0.212524
O       9.67164     15.41250     15.89781        -0.716179      0.381636     -0.839963
O       9.68800      3.99084      7.17825        -0.114063      0.724058     -0.747353
O       9.68910     15.47973      7.17115        -0.285589      0.941959     -0.429762
O       9.56406      3.91203     11.46780         0.372877      0.804059     -0.060157
O       9.59408     15.49910     11.54319        -0.101947     -0.361061     -0.390019
O       9.55825      7.76700      2.73330         0.097253     -0.239830     -0.058970
O       9.42211      7.76127     15.92184         0.575072     -0.093333      0.150300
O       9.55350      7.79111      7.18039        -0.032633      0.454379     -1.248200
O       9.46915      7.76679     11.63630         0.848753      0.259834     -1.475641
O       9.58892     11.61498      2.83807        -0.076805      0.457583     -0.579302
O       9.65367     11.61592     15.99295        -0.180908     -0.289667     -0.225943
O       9.63637     11.71759      7.16910        -0.169399     -0.455421     -0.623737
O       9.54920     11.58713     11.42873         0.099736      0.033516      0.061562
