  # total energy = -7882.46818285 
CRSYTAL
PRIMVEC
    15.3600000000000000    0.2300000000000000    0.0000000000000000
     0.0000000000000000   15.3600000000000000    0.0000000000000000
     0.0000000000000000    0.0000000000000000    17.440000000000000
PRESSURE
0.487769 0.246287 -3.5551 -0.107461 0.034036 -1.53963
PRIMCOORD
320 1
Pb       3.83433      3.97753      4.20015         0.106995     -0.217467      0.482666
Pb       3.78430      3.82310      0.09204         0.106159      0.012744     -0.770540
Pb       3.89695     15.35586      4.34610        -0.267927     -0.227830     -0.536178
Pb       3.86500     15.38953      0.11261        -0.167214     -0.220424     -0.262756
Pb       0.10766      3.94506      4.37168        -0.378232     -0.482223     -0.308359
Pb       0.05376      3.76134      0.09747        -0.274112     -0.008234     -0.874666
Pb      15.27614     15.56842      4.41940         0.408085     -0.038658     -0.755778
Pb      15.29928      0.24938     17.43674         0.027894      0.073770      0.000884
Pb       3.78263      3.71644      8.47025         0.514192      0.430442      1.793750
Pb       3.81284     15.40034      8.57195         0.063507     -0.144207      0.031849
Pb      15.34551      3.99319      8.57799         0.076937      0.256196      0.205183
Pb       0.02277     15.18549      8.64248        -0.032664      0.366773     -0.161128
Pb       3.84892      3.75483     13.11919        -0.268537      0.041112     -0.554355
Pb       3.73887      0.10085     13.13806        -0.281328      0.056553     -0.669751
Pb      15.30299      3.99876     12.96152         0.023079      0.071452      0.774986
Pb      15.28697      0.24661     13.01226         0.300367      0.410761      0.065644
Pb       3.82586      7.77650      4.38437         0.410857      0.076911     -0.838146
Pb       3.76622      7.67635     17.37949         0.065593      0.060214     -0.060750
Pb      15.25886      7.95811      4.44015        -0.149837      0.050194     -0.738914
Pb      15.28141      7.95916     17.40719        -0.065345     -0.122969     -0.553514
Pb       3.86177      7.62811      8.70212         0.243263      0.307461      0.577826
Pb      15.34535      7.79732      8.75940         0.297387     -0.420976     -0.306082
Pb       3.69449      7.57616     13.05307         0.217455      0.539213     -0.121831
Pb      15.35925      7.85904     13.05660        -0.255839     -0.440531     -0.009211
Pb       3.81002     11.46607      4.23888         0.284134     -0.011666     -0.046654
Pb       3.77034     11.55690     17.35810         0.412387      0.198849      0.086855
Pb      15.29097     11.68847      4.37180         0.722546      0.041202     -0.581726
Pb      15.29216     11.82289      0.00143        -0.075123      0.005080     -0.175717
Pb       3.92068     11.45883      8.70407        -0.118482      0.250746     -0.229810
Pb       0.06732     11.44785      8.67570         0.008729      0.695984     -0.070571
Pb       3.74565     11.50610     13.05488        -0.010389     -0.215397     -0.321663
Pb      15.32110     11.71799     13.00633        -0.021256      0.177160      0.230257
Pb       7.65181      3.99063      4.25689         0.579327     -0.290015      0.285225
Pb       7.65360      3.95759     17.38078         0.179144     -0.033376     -0.260219
Pb       7.69666     15.37702      4.28893         0.150622     -0.060795      0.218483
Pb       7.75854      0.21696     17.41500         0.056157     -0.298894      0.117650
Pb       7.51036      3.86254      8.58947         0.824355      0.144561      0.958381
Pb       7.63755     15.35147      8.67172        -0.042349      0.305555     -0.331128
Pb       7.59062      3.92581     13.00456         0.143327      0.289760     -0.362349
Pb       7.64488     15.46266     13.10207         0.382092     -0.042164     -0.221230
Pb       7.70424      7.73514      4.32623        -0.083276      0.481308     -0.270553
Pb       7.56935      7.79607     17.36723         0.796003     -0.097676      0.041855
Pb       7.66202      7.78211      8.79022         0.362064     -0.442195      0.136057
Pb       7.68864      7.91789     13.09672        -0.101723     -0.589499     -0.644282
Pb       7.60795     11.59335      4.35253         0.144487     -0.071307     -0.662258
Pb       7.59635     11.55526     17.30325         0.371025      0.376301      0.060074
Pb       7.64224     11.54082      8.80799         0.394217      0.062596     -0.420900
Pb       7.66110     11.80474     13.20432         0.216912     -0.287752     -0.385801
Pb      11.42346      4.06883      4.48090         0.016407      0.051763     -0.583881
Pb      11.60287      4.10144      0.07676        -0.040976     -0.114238     -0.389905
Pb      11.59158      0.17815      4.39134        -0.075362     -0.211265     -0.501034
Pb      11.49621      0.27635      0.00838         0.580752     -0.211964     -0.323717
Pb      11.46814      3.83589      8.66409        -0.257396      0.385280      0.214114
Pb      11.42493      0.17874      8.66192         0.433665     -0.335587     -0.327092
Pb      11.51369      4.10186     13.08772         0.128350      0.055481     -0.204935
Pb      11.52629      0.28222     12.90476        -0.388678     -0.457783      1.114419
Pb      11.43096      7.91880      4.39579         0.322021     -0.350988     -0.755497
Pb      11.48679      7.86837     17.34409        -0.239749      0.486729      0.268090
Pb      11.60390      7.80653      8.72855        -0.854544      0.366528      0.513032
Pb      11.53415      7.92049     13.03441        -0.006017     -0.160735     -0.249283
Pb      11.53631     11.43364      4.31728        -0.612933      0.801430     -0.249435
Pb      11.45149     11.82365     17.19780         0.051053     -0.295749      0.647764
Pb      11.51417     11.65475      8.72407        -0.314560      0.168073     -0.352629
Pb      11.49644     11.83179     12.93748        -0.169182     -0.379621      0.690753
Ti       1.94215      1.85792      2.34077        -0.561517     -0.862084     -0.940561
Ti       1.96137      1.91274     15.48373        -1.177387      0.122462     -1.640561
Ti       1.96580     13.41078      2.27753        -0.459990      0.061364      0.403831
Ti       1.90849     13.50036     15.39033        -0.349069      0.189021      0.538149
Ti      13.43144      2.15244      2.35525         0.147650     -0.164666     -0.305778
Ti      13.47231      2.17011     15.42877         0.758767     -0.144749     -0.929387
Ti      13.49338     13.60611      2.32255        -0.411179      0.577658     -0.523975
Ti      13.44082     13.63172     15.34816        -0.446575      0.881137      0.301229
Ti       1.99578      1.95582      6.56149        -1.012711     -1.230567     -0.438365
Ti       1.99175     13.37612      6.63196        -0.125344      1.146735     -0.170336
Ti      13.50432      2.13318      6.57783        -0.421831     -0.694654     -0.774359
Ti      13.46822     13.55779      6.57469        -0.850601      1.037941      0.104737
Ti       1.85468      2.00473     10.95114         0.988371     -1.121675     -0.861176
Ti       1.94131     13.45273     11.00853        -0.408200      0.796510     -1.522108
Ti      13.37668      2.20765     10.98336         0.585799     -0.478703     -0.304486
Ti      13.46897     13.71391     11.03429        -0.136249     -0.054748     -1.712634
Ti       1.91686      5.80368      2.27943         0.076811      0.484507     -0.202725
Ti       1.89211      5.72592     15.43633        -1.146502     -0.314011     -0.429180
Ti      13.45345      6.03024      2.33657        -0.902405      0.058793      0.066149
Ti      13.37234      5.99104     15.37827         0.919570     -0.157524      0.031393
Ti       1.99101      5.81659      6.66981        -0.815468     -0.208014      0.286469
Ti      13.33365      5.94971      6.74219         1.184888     -0.127179      0.562913
Ti       1.87768      5.69861     10.96070        -0.233400      0.362012      0.060359
Ti      13.43038      5.98666     10.94605        -0.693774     -0.016135     -0.400196
Ti       1.84973      9.57345      2.23760         0.556804     -0.170778     -0.069666
Ti       1.88829      9.61963     15.41839        -0.302514     -0.430329     -0.795474
Ti      13.44451      9.88222      2.25137        -0.497516     -2.059579     -1.235703
Ti      13.43336      9.81968     15.39219        -1.049766      0.527290      0.306762
Ti       2.00066      9.60011      6.68131         0.080588      0.040504     -0.712050
Ti      13.50615      9.80749      6.83352        -0.506157     -0.925796     -1.427118
Ti       1.80164      9.57613     11.00647         1.418937      0.282148      0.978651
Ti      13.45085      9.86854     11.03688        -1.914028     -1.002895     -0.027331
Ti       5.84422      1.95805      2.30799        -0.534566     -0.111076      1.070706
Ti       5.75008      1.91715     15.37901         0.200042      0.667319     -0.305855
Ti       5.81156     13.54148      2.31863        -0.511225     -1.648708     -0.300588
Ti       5.72924     13.56417     15.34382        -0.226522     -0.435445      0.527537
Ti       5.83895      1.94292      6.50541        -0.092722     -0.543724      0.022034
Ti       5.83006     13.40504      6.60299        -0.592721      0.658243     -0.860194
Ti       5.76603      1.88378     11.04930        -0.439026      0.623089     -0.936877
Ti       5.72503     13.49288     11.00275         0.282996     -0.064786     -0.938861
Ti       5.79738      5.81997      2.32619        -0.050445      0.715331      0.727633
Ti       5.72179      5.72516     15.40788        -0.227670      0.063722     -0.688256
Ti       5.76185      5.80894      6.71253         0.302414      0.157249     -0.467449
Ti       5.63877      5.80435     11.10825         1.790807      0.035265     -1.030843
Ti       5.78318      9.65394      2.28007        -0.270259     -0.001207      1.928191
Ti       5.69947      9.63987     15.31850         0.469698      0.114566     -1.076720
Ti       5.84737      9.62291      6.70697        -0.405343     -0.092817     -2.039403
Ti       5.72075      9.68924     11.10939        -0.425016     -0.605250      0.819044
Ti       9.66035      1.99183      2.37855        -0.230213      0.991253     -0.110150
Ti       9.64376      2.12745     15.37260         0.089619     -0.422743     -0.755305
Ti       9.66127     13.59359      2.24431        -0.076085     -1.338080     -0.858403
Ti       9.53427     13.69350     15.37829         0.822773     -0.611861     -1.376805
Ti       9.63924      2.04364      6.62358        -0.004326     -0.128350     -1.327915
Ti       9.61580     13.50824      6.65280         0.993100     -0.282446     -0.171622
Ti       9.57980      2.07162     11.09348        -0.760481      0.782636     -1.178878
Ti       9.54606     13.58185     10.97531         0.093379      0.744529     -0.087770
Ti       9.66713      5.94413      2.34635        -0.157968      0.058785     -0.570504
Ti       9.58855      5.90294     15.31630        -0.447172      0.286546     -0.435955
Ti       9.59700      5.88987      6.77513        -0.634781     -0.169245     -0.643288
Ti       9.54613      5.87548     11.01834        -0.496454     -0.107213     -0.542863
Ti       9.51507      9.80207      2.20895         0.725174     -0.580753     -0.631888
Ti       9.60525      9.77294     15.29653        -0.315913      0.051724     -0.393729
Ti       9.62872      9.69292      6.69279        -0.398428      0.262392     -0.557169
Ti       9.51226      9.78683     11.11263         0.615094     -1.154470     -0.607389
O       1.76074      1.82458      0.45859         0.790528      0.627362      1.935713
O       1.86982      1.93661     13.60379         0.354439     -0.196463      1.081766
O       1.88560     13.43513      0.48923         0.414076     -0.361244      0.015082
O       1.99570     13.50414     13.63246        -0.383006     -0.105345     -0.218268
O      13.45785      2.09664      0.52430         0.067563      0.278142      0.839324
O      13.53145      2.26219     13.59628        -0.159537     -0.408206      0.685055
O      13.49718     13.56127      0.53038         0.202584      0.241243      0.462553
O      13.33223     13.69094     13.58491         0.439172     -0.314850     -0.458682
O       1.93257      1.82330      4.76548         0.130863      0.394165      0.585213
O       1.94559     13.38190      4.85525         0.108022     -0.039141      0.584293
O      13.39877      2.15969      4.74894         0.171657     -0.266387      0.956008
O      13.34073     13.47165      4.74893         0.342738      0.134141      1.122229
O       1.90575      1.99446      9.11358         0.131181     -0.238268      1.205245
O       1.88558     13.68055      9.12165         0.080596     -1.124339      2.013314
O      13.42119      2.09384      9.21619        -0.249466      0.189180      0.283802
O      13.58817     13.79152      9.19146        -0.474835     -0.469099      1.836408
O       1.84248      5.66819      0.48814         0.044319      0.344259      1.099744
O       1.84917      5.74751     13.63918         0.444522     -0.015825      0.391807
O      13.34508      5.99061      0.56046         0.229707      0.291985      0.105856
O      13.29423      5.93868     13.61110         0.128805      0.020245      0.310366
O       2.11215      5.74229      4.87246        -0.537219      0.134564      0.682205
O      13.33695      6.09685      4.98196         0.349241     -0.261354      0.159470
O       1.92141      5.72888      9.19388        -0.163851      0.147680      0.533844
O      13.57895      5.93133      9.11707        -0.580101      0.226824      1.358379
O       1.83119      9.57224      0.42359         0.133204     -0.112711      0.325607
O       1.97108      9.59498     13.58351        -0.519390      0.133178      1.316037
O      13.40773      9.75858      0.45960         0.458319      0.101681      0.629609
O      13.27061      9.91196     13.64989         0.539878     -0.109867     -0.781808
O       2.01453      9.68854      4.86244        -0.211164     -0.632046      1.943116
O      13.52562      9.58595      4.99382        -0.424924      0.831370      1.307819
O       1.86940      9.61051      9.27287        -0.217425      0.127688     -0.665996
O      13.37151      9.90471      9.23966         0.503994     -0.363542      0.112145
O       5.85174      2.00603      0.54705         0.101364     -0.045160      0.108502
O       5.73186      1.90032     13.55136        -0.372891     -0.018630      1.141504
O       5.67069     13.47625      0.54173         0.340958      0.099234     -0.112475
O       5.64363     13.63519     13.59421         0.220910     -0.217021     -0.521422
O       5.82448      1.93476      4.72767        -0.350154     -0.008485      0.937186
O       5.73853     13.39360      4.75799         0.173257      0.200295      1.728243
O       5.79354      1.82148      9.22774         0.149439      0.168067      1.083798
O       5.99624     13.49515      9.14330        -0.835017     -0.076167      1.488578
O       5.90370      5.77341      0.59920        -0.256413     -0.060332     -0.954884
O       5.59471      5.69315     13.60541        -0.133875      0.161170      0.835545
O       5.58345      5.81361      4.94647         0.507181     -0.201652      0.257481
O       5.73018      5.94124      9.30607        -0.026404     -0.444718      0.584445
O       5.84414      9.59337      0.55183        -0.135687      0.132380     -1.166436
O       5.64680      9.58546     13.49808        -0.008199      0.336547      1.472502
O       5.72352      9.69317      4.84862         0.254443     -0.268062      1.782618
O       5.92228      9.65480      9.34767        -0.496870      0.227105     -0.657240
O       9.62734      1.87304      0.58890        -0.278138      0.690188     -0.237966
O       9.61368      2.07736     13.58714         0.085960      0.136054      0.677654
O       9.49664     13.51042      0.40243         0.174945      0.480286      1.069754
O       9.57028     13.63574     13.52758        -0.113126     -0.053392      1.077515
O       9.80516      2.04634      4.78502        -0.378979     -0.160600      1.383951
O       9.76471     13.42425      4.88502        -0.091096      0.243791      0.166260
O       9.59404      2.06350      9.27554         0.171830     -0.091575      0.115792
O       9.49115     13.58929      9.15004         0.238002      0.066260      1.313478
O       9.59560      5.99519      0.57365         0.026970     -0.482010      0.189558
O       9.70987      5.89606     13.51635        -0.429796     -0.108308      1.248759
O       9.74899      5.82975      4.95522        -0.369121      0.503399      0.496944
O       9.43556      5.73130      9.23029         0.460453      0.532742     -0.026800
O       9.41787      9.75377      0.41519         0.079330     -0.028453      0.286360
O       9.49051      9.76376     13.45588         0.295214     -0.050304      1.098972
O       9.67965      9.69126      4.86615        -0.062695      0.216830      0.841181
O       9.55555      9.68066      9.32340        -0.240967      0.483883      0.084253
O       3.84919      1.77514      2.59076         0.366507      0.532357     -0.014501
O       3.85509      1.92646     15.82395         0.614796     -0.299181      0.102246
O       3.86089     13.49986      2.64206        -0.045934     -0.580820      0.235282
O       3.85554     13.52083     15.66417        -0.792958      0.090820      0.860828
O       0.00836      1.71110      2.76206         0.157119      0.880668     -0.195095
O       0.05553      1.97940     15.82621        -0.832351      0.116771      0.192266
O       0.07896     13.32976      2.77190        -0.615015      0.309167     -0.084998
O      15.31862     13.57533     15.70479         1.139167      0.274801      0.002051
O       3.86285      1.90404      6.96014         0.195230     -0.173199     -0.338280
O       3.89926     13.46304      7.04088         0.062114     -0.193917     -0.037851
O      15.35424      2.27419      6.90221         0.801565     -0.379823     -0.152049
O      15.32968     13.56779      7.06185         0.547080     -0.117428     -0.487747
O       3.80211      2.08404     11.38001        -0.362685     -0.730121      0.123601
O       3.76559     13.26832     11.34065         0.223980      0.656042     -0.248093
O      15.33642      2.10761     11.31183        -0.554610     -0.057020      0.270012
O      15.31690     13.76072     11.43892         0.164067     -0.500797      0.119760
O       3.91078      5.91126      2.68922        -1.278926     -0.858269     -0.288266
O       3.74675      5.65960     16.02820         1.041295      0.721112     -0.620688
O      15.35719      5.95007      2.80646         0.413479      0.167524     -0.210402
O      15.30456      5.99093     15.73256         0.064319     -0.028711      0.309772
O       3.90023      5.87990      7.20988        -0.791263     -0.500613     -0.591516
O       0.06330      5.72032      7.13356        -0.044378      0.185597     -0.852091
O       3.72229      5.62691     11.38657         0.035536      0.605346      0.368253
O      15.24092      6.04743     11.41725         1.318242     -0.205729      0.015089
O       3.77760      9.57943      2.64286         0.817143      0.003524     -0.138488
O       3.83476      9.54945     15.72134        -0.317252      0.083172      0.449398
O      15.33579      9.73697      2.76364        -0.019240     -0.131877     -0.009974
O      15.25048      9.85210     15.77910         2.083330     -0.390452     -0.162885
O       3.93381      9.59930      7.11330        -0.903585      0.167623      0.249873
O       0.12972      9.67914      7.04443        -1.320636     -0.466886      0.135124
O       3.71632      9.74015     11.32325         0.506110     -0.175179      0.161266
O      15.23786      9.73163     11.51150         0.819928      0.474673     -0.130471
O       7.71040      1.94243      2.84020        -0.094181      0.837839     -0.637511
O       7.68359      2.08471     15.71214         0.169116     -0.282593      0.312572
O       7.65786     13.51312      2.78400         1.029510     -0.243990     -0.185477
O       7.66484     13.48889     15.53275        -0.339108      0.467457      0.558028
O       7.73835      2.07198      6.91360        -0.584998     -0.137872     -0.095699
O       7.77153     13.49389      6.93865        -1.142125     -0.026662     -0.034308
O       7.70104      1.87485     11.55795        -1.275434      0.256376     -0.469442
O       7.62136     13.65650     11.45491         0.226509     -0.238135     -0.132421
O       7.70651      5.86034      2.77212        -0.125317     -0.733868      0.204750
O       7.60984      5.67285     15.70204         0.777642      0.395197      0.057647
O       7.69801      5.72229      7.07488        -0.935621      0.170203     -0.316772
O       7.59405      5.83706     11.44258        -0.731594      0.330796      0.425815
O       7.70817      9.64901      2.72088        -1.255578      0.234651      0.201905
O       7.62664      9.77666     15.60646        -0.366481     -0.448873      0.245003
O       7.67482      9.71952      7.05013         0.315173     -0.043406      0.158111
O       7.59895      9.74106     11.50057         0.194784     -0.159552      0.139499
O      11.48286      1.95372      2.60645         1.377513     -0.076606      0.264860
O      11.65609      2.11319     15.74637        -1.817812     -0.332531      0.390824
O      11.55533     13.55664      2.50248        -0.884184     -0.202079      0.364509
O      11.49776     13.67843     15.67867         0.075362     -0.364191      0.408349
O      11.62322      2.02421      7.03452        -0.978497      0.172048      0.239061
O      11.59003     13.53879      7.18701        -0.201461      0.357587     -0.339450
O      11.43823      2.27011     11.43864         1.011208     -0.444176     -0.194554
O      11.47662     13.60013     11.43654         0.110010      0.143000     -0.850748
O      11.55520      5.91084      2.75823        -0.143990      0.608709     -0.025781
O      11.39826      6.06589     15.80393         0.792415     -0.636203      0.012608
O      11.47874      5.98102      7.19280         0.538739     -0.135857     -0.084512
O      11.53218      5.84966     11.34482        -0.500122      0.207546     -0.134025
O      11.52002      9.78673      2.56638        -0.351097     -0.039313      0.561764
O      11.48991      9.75557     15.77826        -0.982008      0.310075     -0.190232
O      11.47459      9.72689      7.10149         1.300813     -0.304329      0.153359
O      11.43922      9.71085     11.44928         0.555295      0.645570     -0.184065
O       1.94285      3.81641      2.68242        -0.072245      0.157374     -0.089526
O       1.98552      3.76353     15.82986        -0.295810      1.134059      0.425142
O       2.02668     15.26369      2.61954        -0.601488      0.769394      0.283794
O       1.85333      0.03954     15.87517         0.367578     -1.276931     -0.384780
O      13.40874      4.04336      2.60906         0.416140     -0.232256      0.308075
O      13.39125      4.12724     15.83202        -0.164168     -0.268218      0.248328
O      13.41641     15.50503      2.70044         0.266456     -0.014453      0.382060
O      13.54234      0.24137     15.85306        -0.234559     -0.483701     -0.507436
O       2.01453      3.87334      7.01969        -0.225347     -0.096343     -0.740956
O       1.98477     15.36795      6.99978        -0.507821      0.305167     -0.383848
O      13.42476      4.03572      7.08213        -0.354038      0.132082     -0.436642
O      13.51651     15.50143      6.84556        -0.051025      0.274578     -0.215383
O       1.76242      3.83493     11.38915         0.012024      0.337452     -0.172997
O       1.86556     15.35881     11.42520         0.571354     -0.025382     -0.019561
O      13.42701      4.05492     11.40770         0.236846      0.028802     -0.316555
O      13.32365      0.22747     11.43306         0.278714      0.442128     -0.251838
O       1.93327      7.67571      2.68159        -0.306788     -0.752121     -0.108670
O       1.85779      7.62955     15.78603         0.364519      0.817669      0.149969
O      13.39316      7.94411      2.78035         0.489570     -1.003745     -0.113995
O      13.33622      7.93856     15.73520         0.476624     -0.891626      0.211661
O       1.90109      7.67586      7.20431         0.291106      0.587429     -0.841299
O      13.44699      7.86087      7.28262         0.379568      0.526681     -0.546295
O       1.82640      7.68144     11.45729         0.285059     -0.565776     -0.233973
O      13.38241      7.87962     11.48614        -0.144997      0.184349     -0.494411
O       1.83407     11.35622      2.75615         0.453247      1.793265     -0.416107
O       1.97725     11.49137     15.81427        -0.175970      0.358523     -0.404626
O      13.51786     11.67113      2.61256        -0.037996      0.527187      0.709765
O      13.51268     11.75858     15.88326        -1.011101     -0.013982     -0.615481
O       1.94808     11.56184      7.13678         0.539237     -1.111585      0.056875
O      13.40193     11.65535      7.08939         0.220227     -0.013337     -0.078414
O       1.76478     11.49879     11.41755        -0.480918      0.649135     -0.050045
O      13.44129     11.73817     11.40056         0.004386      0.286287      0.020300
O       5.68440      3.87109      2.78903         0.680108      0.116986     -0.675818
O       5.72464      3.85195     15.83076        -0.329529     -0.321526      0.196916
O       5.89595     15.36693      2.68647        -0.585711      1.382841      0.023322
O       5.81140     15.44018     15.94501        -0.129559      0.041293     -0.613911
O       5.66005      3.79731      7.06791         0.427365      0.681862     -0.615609
O       5.81700     15.37198      6.93433         0.087876      0.285042     -0.080606
O       5.73867      3.81139     11.40793         0.308862      0.303624      0.171550
O       5.58672     15.35389     11.43211        -0.066376      0.122120     -0.048536
O       5.79020      7.71929      2.82915         0.142630      0.215175     -0.406091
O       5.73621      7.64099     15.84799        -0.176638      0.570720     -0.447304
O       5.82555      7.69012      7.12957         0.000343      0.578445     -0.242529
O       5.63791      7.73443     11.52906        -0.230317     -0.037044     -0.244541
O       5.76111     11.54272      2.70355         0.083794     -0.274043     -0.230783
O       5.73009     11.59842     15.70641        -0.476877     -0.429959     -0.062148
O       5.79530     11.55173      7.05902        -0.086018      0.026193      0.327459
O       5.75129     11.62218     11.42825         0.106149      0.124051      0.091842
O       9.79162      3.97425      2.77860        -1.198563     -0.104357     -0.366206
O       9.71649      3.93407     15.81198        -0.258257      0.992359      0.094941
O       9.54298     15.43564      2.63105         0.156885     -0.324275      0.481256
O       9.63009      0.19669     15.84696        -0.355261     -0.041094     -0.272539
O       9.65199      3.96792      6.96305         0.534417     -0.917685      0.386794
O       9.62287      0.15028      7.01441         0.262267     -0.270986     -0.005136
O       9.34389      4.01397     11.35231         0.746353     -1.184202      0.668966
O       9.62371      0.18128     11.46475         0.207573     -0.814833     -0.462193
O       9.43273      7.84404      2.68828         1.238599     -0.615464      0.295805
O       9.44857      7.84111     15.70144         0.032103     -0.301669     -0.243531
O       9.50299      7.80684      7.09878         0.284066     -0.276258      0.057635
O       9.45034      7.76865     11.31744         0.236112      0.620857      0.579306
O       9.48117     11.61483      2.56149         0.481518      0.894434      0.577108
O       9.53898     11.68459     15.64432         0.322877     -0.182821      0.068042
O       9.65962     11.57868      7.06143        -0.137362      0.563370      0.280730
O       9.51580     11.70926     11.34525        -0.077655      0.345868      0.120018
