  # total energy = -7880.99257840 
CRSYTAL
PRIMVEC
    15.3600000000000000    0.0000000000000000    0.0000000000000000
     0.0000000000000000   15.3600000000000000    0.0000000000000000
     0.2400000000000000    0.0000000000000000    17.440000000000000
PRESSURE
-0.117745 -0.363015 -2.43023 0.063351 -1.21865 0.011023
PRIMCOORD
320 1
Pb       3.82126      3.78208      4.33696        -0.115524      0.159972      0.052506
Pb       4.00469      3.81360     17.41325         0.121422      0.588991     -0.206469
Pb       3.84430      0.06494      4.26394        -0.217944     -0.401130     -0.614680
Pb       4.17554     15.29792     17.41363        -0.360054     -0.082940     -0.208229
Pb      15.41879      3.91505      4.37356         0.082370     -0.207921     -0.392352
Pb      15.46386      3.81337     17.38623         0.122026     -0.094033     -0.229681
Pb      15.41118     15.23171      4.28314         0.019208      0.097824     -0.498410
Pb       0.39214      0.03841     17.38885        -0.391387     -0.173347     -0.170984
Pb       3.78372      3.85399      8.80609        -0.220411      0.212706     -1.239625
Pb       4.00759      0.03044      8.61593        -0.599121     -0.535930     -0.768095
Pb      15.41842      3.80939      8.80212         0.345826      0.094873     -1.142183
Pb       0.17916     15.34285      8.69080        -0.338920     -0.020611     -0.317387
Pb       4.06590      3.70819     13.04337        -0.425019      0.726881     -0.318917
Pb       3.96266     15.31554     12.92225         0.034697     -0.148004      0.203867
Pb      15.45431      3.71116     13.12401         0.590368      0.315326     -0.666356
Pb      15.47259     15.22019     13.03661         0.263058      0.093296     -0.783307
Pb       3.93057      7.67984      4.32996        -0.218630      0.030582      0.080466
Pb       3.98402      7.80863      0.05464        -0.202071     -0.788339     -0.315831
Pb      15.41417      7.72626      4.31842        -0.612572      0.080596     -0.375016
Pb       0.02887      7.57715      0.08290        -0.323867      0.182981     -0.648870
Pb       3.94338      7.71183      8.74103        -0.028497      0.124839     -1.119493
Pb       0.15645      7.66534      8.69836        -0.478663     -0.450751     -0.567565
Pb       3.92399      7.62033     13.23690        -0.223618     -0.644522     -1.075195
Pb       0.27466      7.74161     13.06998        -0.311676     -0.717677     -0.411290
Pb       3.92683     11.50245      4.35322        -0.039901      0.333592     -0.690768
Pb       3.98678     11.48820     17.32047         0.041342     -0.042585     -0.230189
Pb      15.27498     11.42209      4.32221         0.008717      0.117957     -0.407946
Pb      15.31494     11.48719      0.00375         0.068019      0.112092     -0.772133
Pb       3.92550     11.47188      8.62422         0.228802      0.102856     -0.171847
Pb       0.14223     11.61224      8.69930        -0.174744      0.092077     -0.486521
Pb       4.00746     11.51843     13.09992        -0.228759      0.135016     -1.321172
Pb      15.44669     11.43576     13.06725         0.137872      0.226875     -0.729125
Pb       7.71568      3.83613      4.41273         0.167494     -0.304308     -0.291791
Pb       7.76891      3.73550     17.40240         0.252316      0.246065     -0.375127
Pb       7.61187     15.26103      4.40909         0.547377      0.221802     -0.645187
Pb       7.64670     15.33485      0.04771         0.173104     -0.250321     -0.804663
Pb       7.82198      3.77068      8.75882         0.113532     -0.513383     -0.942373
Pb       7.70801      0.01860      8.68662         0.643015     -0.020447     -0.917215
Pb       7.85901      3.95740     12.94136        -0.202997     -0.795155      0.272792
Pb       7.88174     15.35499     13.03042         0.106874      0.092806     -0.171955
Pb       7.73273      7.54292      4.33370        -0.023011      0.297602     -0.021225
Pb       7.95311      7.73880     17.39352         0.017556     -0.077239      0.082134
Pb       7.75203      7.71820      8.70405         0.190253      0.146347     -0.862862
Pb       7.84363      7.70557     13.08944         0.357105     -0.093662     -0.430167
Pb       7.85722     11.48660      4.39696        -0.270409      0.388393     -0.289008
Pb       7.86964     11.60826     17.43314         0.359165     -0.350333     -0.480130
Pb       7.73521     11.44978      8.62961         0.192073      0.215587      0.046715
Pb       7.81130     11.57072     13.03624         0.455936     -0.413981     -0.392048
Pb      11.59472      3.91250      4.39257        -0.209842     -0.301153     -0.635424
Pb      11.75075      3.88540     17.42418        -0.136893     -0.215439      0.053266
Pb      11.53450      0.06622      4.37715         0.023812     -0.269202     -0.788933
Pb      11.48661      0.09241      0.09809         0.133976      0.267729     -0.524062
Pb      11.70604      3.82803      8.76545        -0.049245     -0.227819     -0.707265
Pb      11.64249      0.02977      8.66911        -0.011711      0.224272     -0.556349
Pb      11.62703      3.70821     12.99015         0.065735      0.938252     -0.091329
Pb      11.64717     15.32874     13.04248        -0.501641     -0.367525     -0.504409
Pb      11.50515      7.61100      4.26047         0.543980      0.164027      0.038883
Pb      11.62891      7.62694     17.35730         0.429512      0.134516      0.083188
Pb      11.57420      7.65861      8.77069         0.598815      0.254890     -0.974546
Pb      11.80759      7.62448     13.00327        -0.252412     -0.568576     -0.122256
Pb      11.64654     11.42598      4.30773        -0.164076      0.120408     -0.203262
Pb      11.49206     11.60855      0.00116        -0.202835     -0.737793     -0.273200
Pb      11.54136     11.51259      8.79617         0.075526     -0.407460     -0.953320
Pb      11.66269     11.41970     13.06175        -0.447524      0.099352      0.072861
Ti       1.88656      1.93385      2.21425         0.764690     -0.617704      0.700761
Ti       2.21800      1.87098     15.35313        -1.114163     -0.085897     -0.545125
Ti       1.95816     13.34671      2.19730         0.091280      0.932391      0.117169
Ti       2.13798     13.39489     15.27601        -0.626226      0.571970      0.721864
Ti      13.52181      1.87816      2.33108        -1.004878      0.072424      0.415986
Ti      13.62037      1.93730     15.30836         0.234728     -0.226032      0.386254
Ti      13.52462     13.42496      2.19372        -0.878830     -0.153281      1.846073
Ti      13.65539     13.54117     15.34326         0.539169     -0.646279      0.872191
Ti       1.94021      1.86222      6.53606         0.316556      0.864663      0.038055
Ti       1.97102     13.46509      6.58218         0.050227      0.225821      1.613640
Ti      13.53671      1.90169      6.54641        -0.546610     -0.279461     -0.387915
Ti      13.45908     13.42127      6.70246         0.784075      0.091938      0.193721
Ti       2.04366      1.85516     10.89589        -0.899410      0.837617     -0.146335
Ti       2.05138     13.48038     10.87975        -0.070164     -0.653784     -0.425410
Ti      13.54176      1.88239     11.04065         0.759916     -0.241817     -1.177560
Ti      13.53640     13.38224     10.89111         0.573668      0.702386     -0.394995
Ti       1.97392      5.74621      2.35555         0.054552      0.349627     -0.889364
Ti       2.13250      5.75005     15.42159         0.500577     -0.218732     -1.405788
Ti      13.45760      5.68704      2.30868        -0.548524      0.557122     -0.015898
Ti      13.59710      5.75770     15.31426        -0.018394      0.280960      1.374179
Ti       1.99937      5.73530      6.68464        -0.661589     -0.297421      0.049677
Ti      13.47849      5.70717      6.67113         0.660080      1.092512     -0.110138
Ti       2.09186      5.70435     11.00633        -0.430054     -0.038185     -0.596970
Ti      13.66658      5.69441     10.96084        -0.754305      0.996438      0.990128
Ti       1.93185      9.56965      2.21369        -0.542804      0.449293      0.812724
Ti       2.06785      9.50725     15.37221         0.028805      0.350615      0.724302
Ti      13.37885      9.56283      2.14806        -0.181986     -0.778555      1.231505
Ti      13.61318      9.63287     15.44706        -0.229726     -0.493402      1.767054
Ti       1.95479      9.62942      6.63246         0.827583     -0.231687      0.829348
Ti      13.56385      9.62220      6.80500        -1.282108     -1.094388     -1.452598
Ti       2.05329      9.60279     10.87701         0.154891      0.381751      2.166634
Ti      13.52968      9.56563     11.01497         0.836228     -0.984601     -2.034208
Ti       5.79390      1.94370      2.33308         0.087755     -1.196156     -0.441632
Ti       5.90052      1.80979     15.28230         1.372308     -0.013363     -0.149693
Ti       5.84683     13.44473      2.22231        -0.492041     -0.306317      0.632641
Ti       5.92909     13.27864     15.29369         0.807765      1.567939      0.835805
Ti       5.83378      1.89491      6.61267         0.501766      0.395129      0.002842
Ti       5.87559     13.41865      6.63859        -0.496578     -0.090426      0.275987
Ti       5.85156      1.84792     10.96578         0.657219      0.710183      1.374995
Ti       5.90938     13.43386     10.90924        -0.646043     -0.335440      0.245591
Ti       5.77228      5.71327      2.38283        -0.023547      0.836607     -0.229657
Ti       5.95843      5.74101     15.33338        -0.423507     -0.161629      0.347868
Ti       5.87209      5.70136      6.65785        -0.636945     -0.368221     -0.496504
Ti       5.92146      5.73642     10.88307        -1.228151     -0.030873      1.529949
Ti       5.76644      9.62656      2.35027         0.157807      0.143623     -0.172104
Ti       6.01185      9.46393     15.23196        -0.427809      1.468811      1.238344
Ti       5.89559      9.57509      6.56379        -0.855815     -0.085567     -0.302206
Ti       5.89024      9.51560     11.09466        -0.537207      0.750374     -1.488639
Ti       9.61521      1.89370      2.36871         0.233703     -0.218813      1.800233
Ti       9.75999      1.94595     15.39879         0.463799     -0.626960     -0.168617
Ti       9.69581     13.35595      2.26560        -0.430992      0.670928      0.533343
Ti       9.86550     13.43577     15.42094        -1.208102     -0.197037      0.022047
Ti       9.71073      1.88445      6.55047        -0.265342      0.172952      1.423705
Ti       9.74340     13.37787      6.76508        -0.892036      0.113379     -1.243767
Ti       9.72182      1.89789     11.00420        -0.728264     -0.263746     -0.315263
Ti       9.71451     13.30866     10.94502         0.642992      0.731373      0.250507
Ti       9.56635      5.64587      2.24252         0.434626      0.304875     -0.033084
Ti       9.74042      5.68686     15.29401         0.388974      0.824580      1.326009
Ti       9.68786      5.65893      6.70056         0.024442      0.643049     -0.419148
Ti       9.71413      5.79204     10.93889         1.521423      0.059428      2.104289
Ti       9.52714      9.53696      2.42659         0.333985      0.285992     -1.933533
Ti       9.77893      9.57349     15.35456         0.591656      0.571820     -0.553628
Ti       9.71237      9.50177      6.62225         0.664334      0.339892      0.663040
Ti       9.72986      9.51394     10.97198        -0.392820      0.828693      1.190236
O       1.87474      1.89958      0.41883         0.165036      0.354140     -0.110338
O       2.23411      1.84136     13.54253        -0.041107      0.067358      0.947380
O       2.00054     13.38006      0.41022        -0.221802     -0.121226      0.357722
O       2.08866     13.54016     13.48181        -0.150002     -0.419593      0.643200
O      13.55457      1.92175      0.56863        -0.073387      0.081854     -0.498738
O      13.65611      1.99335     13.47650        -0.261405     -0.316677      0.593438
O      13.37080     13.46805      0.49758         0.387202     -0.328270     -1.662791
O      13.65825     13.51456     13.54416        -0.061469      0.041568      0.723464
O       1.97484      1.88465      4.70479        -0.098037      0.071126      1.605444
O       1.84443     13.43646      4.84442         0.118188      0.002123     -0.609289
O      13.46342      1.85455      4.74182         0.331090      0.121849      0.710301
O      13.65184     13.35121      4.93657        -0.536308      0.145447     -0.323524
O       1.87590      1.97518      9.09550         0.758540     -0.162769      0.634584
O       2.08944     13.68837      9.04223        -0.314894     -0.816865      1.945427
O      13.36798      1.95477      9.25265         0.287404     -0.004600      0.418846
O      13.54123     13.34192      9.07292        -0.132533      0.010792      1.533633
O       2.08949      5.74537      0.55443        -0.523370      0.217427      0.624308
O       2.17455      5.83405     13.50430         0.157679     -0.371428      2.431425
O      13.36075      5.53405      0.54730         0.469959      0.390204     -0.085712
O      13.57273      5.64563     13.58153         0.068761      0.042731     -0.255537
O       1.90861      5.67345      4.86512        -0.024103      0.192019      0.303225
O      13.37604      5.76178      4.86190         0.711427     -0.361612      0.231965
O       1.90030      5.65833      9.08316         0.911343     -0.064338      2.053697
O      13.50038      5.82083      9.20579         0.303184     -0.193752     -0.410324
O       1.92686      9.47376      0.43588        -0.001149      0.329743      0.140928
O       2.01425      9.52971     13.59510         0.159062      0.114716     -0.026960
O      13.32914      9.53461      0.41949         0.234540      0.402555     -0.942822
O      13.57875      9.59369     13.72233         0.053484      0.096466     -1.917939
O       1.88547      9.69928      4.88769        -0.125034     -0.088464     -0.145943
O      13.46979      9.48771      4.95329         0.515286      0.678058      0.799149
O       2.10158      9.58586      9.16312        -0.037709     -0.178475     -1.067525
O      13.51885      9.48501      9.14898         0.088001      0.374924      1.890011
O       5.75834      1.84030      0.52632         0.281279      0.255527      0.463694
O       5.83351      1.85637     13.48862         0.094467      0.065497      0.549788
O       5.84419     13.48312      0.41224        -0.257181     -0.197218      0.705141
O       5.84899     13.29553     13.51551         0.279435      0.036788      0.425498
O       5.87864      1.77771      4.86021        -0.203087      0.281729     -0.952111
O       5.75443     13.34472      4.87647         0.489057      0.283532      0.207089
O       5.97093      1.93302      9.24931        -0.097817     -0.177784     -1.547315
O       5.82838     13.46675      9.13219        -0.114984      0.165694      0.470935
O       5.75321      5.87744      0.62844         0.303268     -0.414191      0.171881
O       5.76823      5.76425     13.57849         0.130540      0.179657     -0.235124
O       5.86626      5.60153      4.86479        -0.191174      0.517856      0.052292
O       5.79073      5.71206      9.12769         0.384499      0.119518      0.114620
O       5.90174      9.53470      0.55913        -0.465688      0.185182      0.275625
O       5.95406      9.45389     13.47448        -0.180436      0.444432     -0.943758
O       5.82207      9.70272      4.75629        -0.182416     -0.099044      1.539851
O       5.73450      9.54922      9.22980         0.781319     -0.269120      1.314315
O       9.62855      1.93569      0.65923        -0.379379     -0.211970     -2.181957
O       9.67690      1.88900     13.61607         0.593925     -0.130726      0.110992
O       9.44077     13.32425      0.45513         0.896892      0.008018      0.991188
O       9.81246     13.49632     13.64567         0.118869     -0.134252     -0.591995
O       9.59515      2.03092      4.79946         0.319274     -0.364315     -0.221811
O       9.76196     13.27195      4.96020        -0.154005      0.298234      0.560654
O       9.62684      1.96607      9.22075         0.455305     -0.123855      1.058367
O       9.83398     13.32051      9.18324        -0.493353      0.205770      0.729702
O       9.42458      5.68210      0.45456         0.289242      0.066970      0.770364
O       9.85737      5.76950     13.56287        -0.063727     -0.113247     -0.643390
O       9.74905      5.62907      4.91570        -0.485074     -0.012952      0.152280
O       9.66618      5.79475      9.22778        -0.092475     -0.139364     -1.288944
O       9.49383      9.62452      0.57623        -0.196380     -0.301680      0.756606
O       9.83098      9.63240     13.55814         0.143424     -0.450601      0.579951
O       9.64093      9.50088      4.86211        -0.038316      0.413861     -0.528904
O       9.59729      9.60310      9.25180         0.155603     -0.342264     -1.181845
O       3.80526      1.95474      2.66407         1.233113     -0.206861      0.121315
O       4.14977      1.96338     15.80135        -1.287155     -0.177514     -0.100575
O       3.79078     13.41492      2.61225         1.318086      0.059991      0.152839
O       4.03313     13.47724     15.74354         0.546832     -1.031758     -0.246864
O       0.08963      1.88277      2.65104        -1.082968      0.370505      0.209437
O       0.23797      1.94532     15.52833         0.186095     -0.017748      0.489965
O      15.37817     13.41935      2.58234         0.316646      0.063705      0.165143
O       0.26469     13.58610     15.79635        -0.567643     -0.388539     -0.522440
O       3.94904      1.79820      6.88025        -0.671462      0.326244      0.404718
O       3.87702     13.56196      6.95782         0.968762     -0.295098     -0.029567
O      15.42434      1.95311      6.91970        -0.013378     -0.500769     -0.046128
O      15.37587     13.45640      7.08123         0.659293      0.019641      0.125696
O       3.93765      1.71893     11.19789         0.469197      0.284546      0.158503
O       3.91540     13.45579     11.42557         0.623716      0.318610     -0.512596
O       0.16019      1.95928     11.24972        -0.621704      0.575789      0.781866
O      15.46722     13.36213     11.35390        -0.021182     -0.161413     -0.036748
O       3.88732      5.81115      2.79650         0.091352     -0.532942      0.139629
O       4.14708      5.89700     15.99462        -0.966430     -0.607480     -0.848579
O       0.06053      5.76946      2.53116        -0.223951      0.001929      0.609995
O       0.25055      5.72110     15.75675        -0.555577     -0.104617      0.093626
O       3.87122      5.66068      7.02691         0.724497      0.226490      0.241145
O      15.39542      5.73607      7.12126         0.021023     -0.000975     -0.333095
O       3.99536      5.82222     11.40223         0.874014      0.087219     -0.711105
O       0.19546      5.70771     11.44385        -0.615643     -1.004885     -0.263433
O       3.82072      9.71812      2.66573         0.340895     -0.211357     -0.010398
O       4.04201      9.59807     15.68712        -0.145134      0.047555     -0.005346
O      15.27947      9.44009      2.50501         1.317795      0.454996      0.341933
O      15.56513      9.48665     15.80572         0.095816      0.099841      0.268990
O       3.91170      9.53968      6.98044         0.388214      0.638038      0.043503
O      15.45776      9.75025      7.11638         0.452860     -0.377013     -0.009905
O       3.94142      9.56077     11.31737         0.408012     -0.323109      0.574831
O       0.17305      9.56193     11.33296        -0.424101      0.405800      0.299875
O       7.68739      1.76231      2.74149        -0.400740      0.378035     -0.061917
O       7.95848      1.81546     15.70620        -1.555485      0.105938      0.627141
O       7.79813     13.44346      2.72348        -0.445489     -0.015011     -0.143862
O       7.90233     13.56007     15.80641        -0.790433     -0.913088     -0.498710
O       7.84119      1.87351      7.00217        -0.840865      0.471849      0.479835
O       7.80980     13.41489      7.15731        -0.831471     -0.005532     -0.306498
O       7.81456      1.99477     11.37706         0.200344     -0.259714      0.176180
O       7.85387     13.36780     11.27743        -0.480963     -0.016704      0.299666
O       7.72091      5.74816      2.75108        -0.574553      0.215176      0.157072
O       7.86785      5.80604     15.51956        -0.207888      0.253587      0.456456
O       7.75212      5.77475      6.95268        -0.069225     -0.288751      0.620648
O       7.86975      5.75884     11.43084        -1.281924     -0.497011     -0.452202
O       7.59174      9.53616      2.78250         1.192907      0.237500      0.138899
O       7.88693      9.49999     15.58370        -0.115524     -0.051009      0.257154
O       7.86377      9.66527      7.08296        -2.122908     -0.781356     -0.172302
O       7.91829      9.55130     11.50744        -2.131366      0.910994     -0.006487
O      11.53150      1.96095      2.65162         0.612951     -0.240853      0.383191
O      11.75162      1.95622     15.89238        -0.334490     -0.301260     -0.631054
O      11.57609     13.31801      2.62921        -0.417088     -0.250719     -0.011464
O      11.78847     13.38365     15.85532         0.263206     -0.064628     -0.507460
O      11.57890      1.83310      6.90688         0.591473      0.774451      0.301309
O      11.54960     13.40177      7.16988         1.354027      0.091584     -0.065892
O      11.69774      1.84523     11.51946        -1.176521     -0.183810     -0.212889
O      11.71122     13.48243     11.32843        -0.617012     -0.219293      0.314420
O      11.47595      5.71218      2.70006         0.213699     -0.072788     -0.251452
O      11.74520      5.70608     15.86450        -0.441440     -0.278950     -0.581800
O      11.60660      5.67372      6.98932         0.260031      0.480394      0.763530
O      11.71670      5.79602     11.36677        -1.184028      0.503554     -0.022189
O      11.47575      9.57342      2.68351         0.707318     -0.046250      0.026054
O      11.70810      9.75140     15.79800        -0.240213     -0.395039      0.037372
O      11.54417      9.50935      7.10595         0.623044      0.391331      0.242262
O      11.65012      9.50938     11.26036         0.544596     -0.278401      0.583622
O       1.98540      3.88670      2.71743        -0.157488     -0.365845     -0.104937
O       2.20999      3.84123     15.74653         0.340439     -0.283408     -0.073352
O       1.94840      0.02904      2.59174        -0.067595     -0.482332      0.056957
O       2.21947     15.30541     15.82882         0.129878      1.238069     -0.490403
O      13.43908      3.78116      2.68035         0.599778      0.627737      0.486086
O      13.61083      3.79255     15.79499         0.540348      0.202870     -0.255692
O      13.40352     15.28932      2.61541         0.210624      0.430747      0.429018
O      13.67866      0.05560     15.86504        -0.373026     -0.196949     -0.752916
O       1.91742      3.83192      7.02129         0.489076     -1.078651     -0.057537
O       1.94575      0.01724      7.08496        -0.103251      0.512312     -0.798898
O      13.54836      3.78571      7.04618        -0.417783      0.214078      0.010038
O      13.41985      0.03237      7.02609         0.371122     -0.401668      0.058134
O       2.21299      3.78864     11.38433        -0.101731     -0.251035     -0.228511
O       1.92585     15.34102     11.26972         0.138454      0.181975      0.349890
O      13.38272      3.87189     11.26795         0.911919     -1.056036      0.472697
O      13.68107     15.31787     11.16921        -0.269128     -0.145458      0.720532
O       2.02292      7.77043      2.86132        -0.201186     -0.790524     -0.565839
O       2.08441      7.61824     15.76815         0.384227      0.402471     -0.074468
O      13.45943      7.60905      2.57265        -0.404528      0.015796      0.239146
O      13.52642      7.65851     15.81894         0.386494     -0.519713     -0.326609
O       2.02845      7.67875      7.07921        -0.514378      0.444679     -0.256596
O      13.62302      7.71211      7.04532        -0.265953     -0.793071      0.390384
O       1.94133      7.52477     11.45155         0.813377      1.933252     -0.700133
O      13.68355      7.60870     11.54434        -0.318692      1.125954     -0.371361
O       1.92069     11.50591      2.59805        -0.529133     -0.787877     -0.034636
O       2.02093     11.53154     15.71665         0.446068     -0.510734     -0.058661
O      13.49424     11.44338      2.60416         0.046437      0.184589      0.120002
O      13.85790     11.52209     15.73575        -0.391705      1.026167      0.113864
O       2.00672     11.61537      7.15698         0.132205     -0.803709     -0.499491
O      13.47859     11.52559      7.02771        -0.124594     -0.146868      0.332681
O       2.08911     11.57340     11.22048        -0.129671     -1.037299      0.085040
O      13.50237     11.41944     11.51195         0.407874      0.364526     -0.462982
O       5.84372      3.78053      2.65558        -0.110854      0.576290      0.090466
O       6.00395      3.87488     15.70084         0.060989     -0.800217      0.252862
O       5.83590     15.28781      2.65911        -0.597649      0.347184      0.350764
O       5.93392     15.30343     15.65422        -0.084256      0.502383      0.063027
O       5.87059      3.78618      6.91267         0.115889      0.017431      0.656721
O       5.96049     15.34161      6.94981        -0.074746     -0.407561      0.646326
O       5.80023      3.80026     11.38129         0.330570      0.645032     -0.331159
O       5.95813     15.33559     11.39100         0.146678     -0.511371     -0.204101
O       5.71111      7.71949      2.80081         0.204303     -0.628165     -0.130114
O       5.95148      7.73351     15.78260         0.191970     -0.955565     -0.058694
O       5.82711      7.67482      6.90734         0.238113      0.279511      0.411365
O       6.04147      7.67297     11.35842        -0.312414     -0.660158     -0.297810
O       5.84143     11.62054      2.69420        -0.209168     -0.809271     -0.164689
O       5.99027     11.44234     15.72610        -0.039181      0.199307     -0.267199
O       5.83461     11.48521      7.08373        -0.060833     -0.018060     -0.277343
O       5.81228     11.58661     11.37099         0.405910     -1.078504      0.281687
O       9.54268      3.82351      2.68412        -0.110700      0.220741      0.061758
O       9.67924      3.84708     15.77798         0.420280     -0.632075     -0.131313
O       9.78777     15.33720      2.75306        -0.435439     -1.106756     -0.258737
O       9.87206     15.26290     15.82824         0.460700      1.597185      0.223428
O       9.75289      3.84381      7.22170        -0.553337     -0.642707     -0.324021
O       9.72293      0.02758      7.03816        -0.153749     -0.686992      0.056946
O       9.77750      3.83614     11.46636         0.083647     -0.110005     -0.470450
O       9.69467     15.32998     11.43132         0.264827      0.027098     -0.112828
O       9.59713      7.69134      2.79592        -0.293528     -1.272579     -0.352506
O       9.85857      7.60379     15.84410        -0.099066      0.757065     -0.554924
O       9.67961      7.61165      7.01479        -0.186041      0.152806      0.549626
O       9.60732      7.69431     11.32787         0.754705     -1.365200      0.164942
O       9.59841     11.41116      2.80317         0.007073      1.282589     -0.174267
O       9.70552     11.47699     15.66428         0.122746      0.305765      0.512449
O       9.65001     11.48537      7.15781         0.500798     -0.321675     -0.156571
O       9.80509     11.43999     11.44333         0.148237      1.192960     -0.064413
