  # total energy = -7880.59531830 
CRSYTAL
PRIMVEC
    15.3600000000000000    0.2300000000000000    0.0000000000000000
     0.0000000000000000   15.3600000000000000    0.0000000000000000
     0.0000000000000000    0.0000000000000000    17.440000000000000
PRESSURE
1.34306 1.43155 -0.29745 -0.42854 0.111826 -1.56633
PRIMCOORD
320 1
Pb       3.76884      3.73950      4.52428        -0.249515      0.567848     -0.928724
Pb       3.86199      3.94111     17.33101        -0.067244      0.192652      0.302722
Pb       3.72005      0.07256      4.30156         0.249038     -0.009433      0.247553
Pb       3.76938      0.11173     17.35109         0.362406     -0.459849      0.639311
Pb      15.18854      3.90511      4.23534         0.416113      0.777770     -0.013983
Pb      15.26201      4.09907     17.21630         0.538774     -0.315911      1.078656
Pb       0.02026     15.27074      4.31177        -0.317153      0.442883      0.026071
Pb      15.35689     15.58025     17.37198        -0.048515     -0.042653     -0.106242
Pb       3.84173      3.95347      8.78282         0.127105      0.150390     -0.212308
Pb       3.82913     15.36254      8.77331        -0.265469      0.380416     -0.539491
Pb       0.00282      3.87595      8.75335        -0.755080     -0.476639     -0.109319
Pb      15.34163      0.32947      8.70420        -0.393386      0.016805     -0.276318
Pb       3.82684      3.96835     12.99155        -0.353490      0.126752      0.547141
Pb       3.91068      0.08805     13.03355        -0.245156     -0.464256     -0.217141
Pb       0.05417      3.86911     13.03876         0.140579     -0.168594     -0.071966
Pb       0.03580     15.34700     13.07797         0.039198     -0.603479     -0.119787
Pb       3.75333      7.66648      4.35802         0.091054     -0.341352     -0.084120
Pb       3.86836      7.83012     17.38030         0.101508     -0.213541     -0.026798
Pb       0.02761      7.62063      4.23696         0.090579     -0.331396     -0.042438
Pb       0.06193      7.74564     17.39241        -0.144112     -0.816252      0.532695
Pb       3.68949      7.83959      8.62506         0.916379     -0.690360      0.153862
Pb      15.34916      7.99726      8.65081        -0.494239     -0.413891     -0.294451
Pb       3.91491      7.97207     13.07809        -0.486790     -0.932907      0.170781
Pb      15.29860      7.92902     13.00796         0.451022      0.000686     -0.012972
Pb       3.87702     11.65630      4.42446         0.012275     -0.063646     -0.167455
Pb       3.80802     11.64935     17.36875         0.092207     -0.724057     -0.015206
Pb      15.30139     11.79838      4.29562         0.263970     -0.509363      0.322076
Pb       0.03704     11.36165      0.02674        -0.205813      0.784969     -0.151962
Pb       3.63237     11.63625      8.65778         0.425000     -0.432656      0.110152
Pb      15.15897     11.66689      8.72708         0.208241      0.275278     -0.418568
Pb       3.83666     11.59874     13.14648        -0.461968      0.390688     -0.712848
Pb       0.01831     11.47307     13.13636         0.166477      0.641669     -0.668487
Pb       7.57723      3.86664      4.43712         0.531167      0.295986     -0.921229
Pb       7.65558      3.84796     17.41077         0.015871      0.614786     -0.479358
Pb       7.47565      0.24103      4.39838         0.816904     -0.504988     -0.265218
Pb       7.51112     15.45067     17.33188         0.649851     -0.087463      0.107145
Pb       7.68272      4.03811      8.78949         0.102867      0.007967      0.011519
Pb       7.53353      0.18765      8.76439         0.675278      0.220863      0.250481
Pb       7.69744      3.85048     13.05244         0.351793     -0.063192     -0.285271
Pb       7.66524     15.46968     13.05465         0.029158      0.173076     -0.695270
Pb       7.67340      7.86419      4.27922         0.562059     -0.524313      0.436011
Pb       7.72278      7.87799      0.01352         0.007330     -0.264530     -0.619187
Pb       7.66610      7.69986      8.59590        -0.248921      0.404602      0.152042
Pb       7.66634      7.68274     13.00371         0.249613      0.332134      0.403907
Pb       7.69040     11.60918      4.22311        -0.119042     -0.169127      0.538076
Pb       7.82324     11.65783      0.00348         0.310277     -0.186935     -0.584736
Pb       7.54017     11.63668      8.61971         1.087510     -0.775221      1.122627
Pb       7.68819     11.38944     12.91917         0.053083      0.584659      0.508795
Pb      11.51258      3.89071      4.23011         0.286258      0.440133      0.493881
Pb      11.45626      3.93502     17.30309         0.043849     -0.232991      0.359787
Pb      11.40236      0.19703      4.23360         0.303610      0.127843      0.382491
Pb      11.54634     15.40384     17.39844        -0.773843      0.347844      0.094607
Pb      11.54631      4.12891      8.66832         0.343065     -0.831630      0.201961
Pb      11.57471     15.44004      8.76240         0.168009      0.492561     -0.644005
Pb      11.64105      3.97403     13.05695        -0.323102     -0.346122     -0.320867
Pb      11.50004     15.27830     13.14909         0.546281      0.406615     -0.409913
Pb      11.50258      7.81238      4.27672        -0.034075     -0.247290      0.045467
Pb      11.60267      7.85764     17.40270        -0.507832     -0.668910      0.165164
Pb      11.41990      7.85430      8.63889         0.721203      0.386350      0.186144
Pb      11.54391      7.70489     13.00281        -0.444977      0.727000      0.503395
Pb      11.42306     11.83084      4.46027         0.046883     -0.660382     -0.082032
Pb      11.61425     11.56171      0.06769        -0.668734      0.376696     -0.221791
Pb      11.45068     11.59776      8.61404         0.029744     -0.065172      0.382033
Pb      11.49170     11.54293     13.18825         0.041979      0.249671     -1.049952
Ti       1.95447      1.96067      2.20579        -0.822607      0.833044     -0.895407
Ti       1.91245      1.92558     15.42552         0.161888      0.567944     -0.233494
Ti       1.89576     13.46071      2.34831         0.706138      0.026903      0.018977
Ti       1.92591     13.39278     15.45285        -0.955468      0.225492     -2.295995
Ti      13.51461      2.03789      2.23272        -0.757295      0.560113      0.780649
Ti      13.43492      2.05733     15.32861        -0.673049      0.234085     -0.364307
Ti      13.42659     13.50205      2.33521        -0.242491      1.594567     -0.779844
Ti      13.41669     13.66433     15.40265         0.643742     -1.329449     -0.432933
Ti       1.88126      2.04290      6.73172        -0.435412     -1.419168     -0.084650
Ti       1.91416     13.50572      6.74412        -0.845347      0.519912     -0.391954
Ti      13.36190      2.16679      6.62869         0.175124     -0.309215      0.917874
Ti      13.42481     13.63245      6.61185         0.500137      1.086245      1.185545
Ti       1.94364      1.88314     11.12748        -0.880864      0.120184      0.258274
Ti       1.88355     13.36294     10.88459         0.498084      0.736252      1.319794
Ti      13.50866      2.03692     11.12123        -0.554136      0.129688     -1.254841
Ti      13.50573     13.52413     11.08273        -1.206947      0.834285      0.954485
Ti       1.93448      5.73563      2.30311        -0.784663     -0.099762      0.134158
Ti       1.90818      5.82588     15.39902         0.700143     -0.477299     -0.384380
Ti      13.40021      5.92202      2.26897         1.073447     -0.792573      0.909301
Ti      13.44367      5.92673     15.34787        -1.059054      0.217843      0.256884
Ti       1.84423      5.76478      6.73130         0.707144     -0.225945     -0.717112
Ti      13.43221      5.99777      6.51140         0.188600     -0.445617      0.121490
Ti       1.90640      5.87777     10.98304         0.454363     -1.086805      1.146939
Ti      13.45367      5.95350     11.10574        -0.241167     -0.477958      0.010048
Ti       1.99416      9.69419      2.39699        -1.203987     -1.178178     -0.008552
Ti       1.82549      9.57089     15.38161         2.211715      0.550282     -1.070361
Ti      13.47962      9.72165      2.34107         0.141134      0.700769      0.240702
Ti      13.41219      9.82245     15.36767        -0.815225     -0.919703     -1.208834
Ti       1.90156      9.57700      6.58826        -0.622263      0.405107      0.031236
Ti      13.44694      9.80743      6.55227        -0.912581     -0.975511      0.273463
Ti       1.85598      9.59174     11.02437        -0.036820      0.557580      0.373119
Ti      13.45738      9.76555     10.98086        -0.980327      0.723636      0.329981
Ti       5.71947      1.95070      2.27104         0.348034      0.094084     -0.865275
Ti       5.75368      1.99937     15.34547        -0.138832      0.761052      0.124619
Ti       5.74023     13.49913      2.39062         0.130687      0.258782      2.003520
Ti       5.74795     13.46149     15.25638        -0.029151      0.122532     -0.754368
Ti       5.71589      2.00687      6.77482        -0.519602     -0.870066      0.090019
Ti       5.88938     13.46831      6.81616        -1.890822      1.055920     -1.663165
Ti       5.72441      2.03879     11.10175         1.279227     -0.764752     -1.103771
Ti       5.77841     13.47756     10.96036        -0.419453      0.190504      1.904109
Ti       5.73307      5.80018      2.41534         0.568923     -0.315792     -0.133916
Ti       5.74029      5.94869     15.39955         0.253285     -1.111952     -0.137817
Ti       5.75866      5.79004      6.60552        -1.035661      0.814453     -0.055356
Ti       5.74285      5.87363     11.13496        -0.526094     -0.296179     -0.942051
Ti       5.71987      9.60999      2.35148         0.638511     -0.229752      0.049472
Ti       5.76293      9.76638     15.30144         0.200851     -2.166924      0.790058
Ti       5.69411      9.66650      6.66789         0.419753     -1.024490      0.284987
Ti       5.68005      9.71390     10.97864         0.828087     -0.576862     -0.850908
Ti       9.63221      2.04749      2.30623        -0.660181     -0.518215     -0.893085
Ti       9.56590      1.98182     15.32485         0.391774     -0.213866     -0.519401
Ti       9.58116     13.49650      2.45568        -0.047858      1.544749     -1.781626
Ti       9.62109     13.54497     15.30065        -0.680554     -0.620847      2.153758
Ti       9.52130      2.05379      6.71548         1.568406     -0.472089      0.007180
Ti       9.58383     13.60717      6.70186         1.500122      0.079026     -1.280168
Ti       9.73255      1.94832     10.99938        -0.960806      0.996779      0.431106
Ti       9.58936     13.58492     11.05251         0.115184     -0.920568      0.076556
Ti       9.58031      5.81221      2.34024        -0.093041      0.479540      0.646495
Ti       9.57385      5.84293     15.35951        -0.313653      0.565612     -0.738245
Ti       9.68573      5.87884      6.62808        -0.737958      0.369434     -1.609635
Ti       9.62109      5.86885     11.15058        -0.406996     -0.861118     -0.636296
Ti       9.70447      9.68738      2.34025        -1.138623     -0.238431     -0.652436
Ti       9.69066      9.66247     15.36810        -1.971524      0.295978      0.125341
Ti       9.54789      9.70089      6.61569         0.363706      0.550720      0.403356
Ti       9.64316      9.72964     11.03103        -0.054835     -0.253208     -0.497689
O       1.88172      1.98196      0.39351        -0.115279     -0.419529      0.933229
O       2.03201      1.96857     13.65001        -0.172684     -0.221816      0.379355
O       1.93467     13.30780      0.60896        -0.284955      0.036279     -1.134022
O       1.94085     13.24117     13.63111         0.121641      0.429924      1.022124
O      13.46783      2.14414      0.51677         0.040360     -0.563933     -1.459616
O      13.47526      2.10811     13.57497        -0.200542     -0.008015      0.098054
O      13.35029     13.63279      0.52482         0.234825     -0.459716      0.371725
O      13.43789     13.66809     13.64149         0.077764     -0.594421     -0.119736
O       1.91236      1.97871      4.94844         0.232803      0.066015      0.064018
O       1.83009     13.58152      4.92526         0.450828     -0.327025      0.593744
O      13.33487      2.19568      4.87471         0.379575     -0.384869     -0.808855
O      13.59066     13.61836      4.84401        -0.583689     -0.325192      0.003714
O       1.76012      1.94032      9.40517         0.417594      0.156354     -0.904846
O       1.90783     13.52373      9.13328        -0.086003     -0.619586     -0.569375
O      13.62381      2.09386      9.30210        -0.265955     -0.038337      0.851335
O      13.40889     13.64338      9.35490         0.153977     -0.137381     -0.844114
O       1.84635      5.73703      0.56206        -0.081534      0.132406     -0.900282
O       1.83504      5.86146     13.65586         0.230443     -0.143495     -0.038530
O      13.29812      6.00481      0.53146         0.476256     -0.082796     -1.216031
O      13.36489      5.87993     13.56295         0.177294      0.410766      0.434649
O       2.07294      5.74348      4.97709        -0.573828     -0.019810     -0.307839
O      13.27207      5.73524      4.76815         0.652574      1.001217      0.472395
O       1.86505      5.68656      9.21866         0.125327      0.770563      0.284210
O      13.29438      5.84707      9.39161         0.549306      0.206540     -0.561755
O       1.75490      9.65790      0.60859         0.493449      0.019023     -0.564767
O       1.90628      9.66632     13.59386        -0.342810     -0.143914      0.437206
O      13.47699      9.80784      0.54365         0.279034     -0.126033     -0.583793
O      13.28036      9.73166     13.55141         0.628245      0.378336      1.447745
O       1.99968      9.51310      4.81061        -0.229089      0.299833      0.315074
O      13.30795      9.84229      4.79561         0.528480      0.248359     -0.484247
O       1.82249      9.52230      9.27710         0.134257     -0.171054     -0.919411
O      13.41621      9.87590      9.23625         0.463800     -0.477210     -0.657165
O       5.72950      1.76679      0.45726         0.441811      0.472604      0.723097
O       5.77961      2.00927     13.56118        -0.337828     -0.235251     -0.125200
O       5.89498     13.61693      0.74019        -0.454574     -0.274869     -2.978390
O       5.57153     13.42200     13.47034         0.216287     -0.107460      0.913776
O       5.62989      1.96359      4.99962         0.267342     -0.013530     -0.440842
O       5.74209     13.52712      5.01346         0.154199     -0.242741      0.574689
O       5.71005      1.99097      9.28585         0.181596     -0.253524      0.095541
O       5.82383     13.44547      9.22484         0.204879      0.169747     -1.935060
O       5.90264      5.72902      0.66325        -0.051026      0.347109     -0.393331
O       5.59845      5.79511     13.66309         0.417804      0.396023     -0.943734
O       5.62370      5.75826      4.81412         0.373467     -0.197505      1.048565
O       5.62888      5.82035      9.34972         0.778573     -0.021167     -0.000313
O       5.55270      9.48571      0.61680         0.739688      0.435459     -0.480944
O       5.64525      9.76730     13.53551         0.107914     -0.149975     -0.516391
O       5.56936      9.66961      4.92735        -0.123956      0.257942     -0.530404
O       5.80738      9.64717      9.17940        -0.266813      0.010561      0.949853
O       9.71199      2.01955      0.51205        -0.750096     -0.000276      0.686275
O       9.48224      1.97142     13.52865         0.226137      0.148783      0.802126
O       9.71048     13.49742      0.60688        -0.419540     -0.238968      1.099845
O       9.73146     13.44231     13.60735        -0.532870      0.202444     -1.488220
O       9.55651      2.17069      4.96146         0.022475     -0.555499     -0.457193
O       9.57090     13.51064      4.85593         0.393104      0.106141      0.646542
O       9.59710      1.95830      9.23414        -0.271058     -0.019093     -0.423393
O       9.54177     13.54202      9.30485         0.340004      0.309815     -0.593182
O       9.49188      5.85790      0.59025         0.009881     -0.250879     -0.676963
O       9.61945      5.98386     13.56408         0.100461     -0.782589      0.221144
O       9.56813      6.03721      4.81721         0.812316     -0.483084      2.018407
O       9.53879      5.91496      9.33875         0.105920     -0.200383      0.119882
O       9.57139      9.82584      0.55700         0.087617     -0.212426     -0.147249
O       9.70302      9.76533     13.60967        -0.071618      0.017905     -0.815498
O       9.59933      9.64766      4.88500         0.624569      0.172116     -1.237245
O       9.60861      9.66548      9.24653        -0.221908     -0.014566      0.219356
O       3.79500      1.95059      2.56031         0.401624     -0.305155      0.569729
O       3.87469      1.91910     16.04870        -0.662372      0.481647     -1.862960
O       3.79371     13.63191      2.77777         0.717305     -1.069144      0.068503
O       3.82112     13.43141     15.83996         0.380269     -0.119727      0.049563
O       0.02146      1.87273      2.60608         0.308196      0.340450      0.313881
O      15.32820      2.05624     15.76448         0.084504      0.355087     -0.009970
O       0.03357     13.35847      2.77835        -0.492496     -0.345777     -0.332621
O       0.00219     13.26388     15.71332        -0.115279      0.546762      0.693341
O       3.80249      1.99188      7.14524        -0.290148      0.200079      0.135528
O       3.88265     13.42330      7.14482        -0.605643      0.019126     -0.130403
O      15.32157      2.16149      7.12369         0.432495      0.005180     -0.239511
O      15.32748     13.72119      7.12081         0.087933     -0.823277     -0.319151
O       3.83364      1.97717     11.48023        -0.005987     -0.092305      0.004962
O       3.79493     13.29388     11.18607         0.100511      0.345984      0.358189
O       0.02659      1.78507     11.59168         0.369454      0.658827     -0.013059
O       0.00248     13.49331     11.49469         0.279235     -0.289408     -0.111567
O       3.83293      5.83280      2.58838         0.490318      0.271438      0.443915
O       3.85002      5.73529     15.78290        -0.388645      0.362073      0.362941
O      15.33737      5.79454      2.75212         0.034841      0.956382      0.089082
O      15.34149      5.97106     15.71341        -0.875704      0.333266      0.125991
O       3.78386      5.74618      7.03606         1.238209     -0.178485      0.562029
O      15.31379      6.07546      7.06290        -0.132634     -0.442466     -0.056340
O       3.82012      5.68425     11.48742        -0.364269      0.872869     -0.566201
O      15.35179      6.11161     11.51999         0.171779     -0.200480     -0.501102
O       3.82677      9.55152      2.68593         0.294285     -0.101103      0.275244
O       3.77839      9.55925     15.72345         0.186305      0.477136      0.314361
O       0.01762      9.70131      2.71712        -0.173201      0.248549      0.302886
O      15.32395      9.59924     15.67120        -0.517170      0.817976      0.261884
O       3.75587      9.60693      7.10790         0.308752      0.146049     -0.148896
O      15.33378      9.68766      7.09416         0.451758      0.769422     -0.415213
O       3.72665      9.69432     11.40974         1.909683      0.006060     -0.124509
O      15.33396      9.74791     11.33671        -0.013885     -0.407907      0.669486
O       7.67771      1.91106      2.67397        -0.291392      0.571344      0.182013
O       7.61463      1.95426     15.70363        -0.102282     -0.285296      0.403532
O       7.68755     13.54312      2.73482        -0.160714     -0.184794      0.373723
O       7.58840     13.33885     15.64262         0.330948      0.778334      0.272124
O       7.67635      1.82316      6.99160        -0.721293      0.953318      0.484328
O       7.77087     13.47708      7.05443        -1.484486     -0.079331      0.443322
O       7.68637      1.90310     11.34705        -0.396468     -0.216507      0.496740
O       7.63199     13.71708     11.34779         1.126268     -0.767667      0.320227
O       7.76651      5.80598      2.85682        -1.087190     -0.140293     -0.096901
O       7.69061      5.86906     15.63733        -0.283575     -0.004227      0.676599
O       7.67224      5.87203      7.02627         0.158619     -0.254535      0.128727
O       7.65155      5.79906     11.56558        -0.099035      0.333986     -0.303645
O       7.72101      9.62814      2.65638        -0.532607      0.436728      0.224437
O       7.66372      9.68052     15.69078        -0.046985     -0.057247      0.423743
O       7.62484      9.54989      6.73284         0.665665      0.661358      1.132201
O       7.60693      9.55722     11.46419         0.427273      0.459855     -0.137312
O      11.49684      2.10805      2.61640         0.737770     -0.735319      0.476618
O      11.47818      2.03155     15.69885         0.503248     -0.192956      0.000962
O      11.55891     13.58454      2.78310        -0.445258      0.200454      0.214423
O      11.47443     13.73831     15.69551         0.477471     -1.024434      0.270462
O      11.52613      1.97613      7.07908        -0.409056      0.627868      0.212656
O      11.54738     13.64465      7.12465         0.108170     -0.339645     -0.410192
O      11.56472      2.16396     11.23342        -0.219358      0.044452      0.631305
O      11.52642     13.46493     11.57950         0.047653      0.015139     -0.385364
O      11.61195      5.83723      2.73498        -1.906046      0.820023     -0.147807
O      11.43178      5.72935     15.80054         0.865356      0.744456     -0.275827
O      11.59139      5.91200      7.15758        -1.324156      0.315887     -0.517700
O      11.55261      5.89078     11.49120        -0.685357     -0.365650      0.038028
O      11.58772      9.70689      2.50904        -0.722672     -0.036690      0.557596
O      11.49636      9.63526     15.79669         1.349603      1.085060      0.284092
O      11.61247      9.71929      7.03913        -1.220343     -0.140185      0.194339
O      11.51616      9.88209     11.29459        -0.573098     -0.216669      0.509216
O       1.97423      3.88450      2.70591         0.098278     -1.508926      0.199707
O       1.89795      3.86598     15.77339        -0.024940     -0.443100     -0.087610
O       1.89489     15.38563      2.60911        -0.256939      0.133314      0.251377
O       1.79117     15.34249     15.72103         0.778322     -0.141980      0.398635
O      13.43454      4.01576      2.60735         0.036221     -1.184348      0.111130
O      13.36880      3.97998     15.69926         0.475437      0.439060      0.046928
O      13.56896     15.49998      2.62608        -0.602160      0.057394      0.214989
O      13.41194     15.47868     15.64154         0.525841      1.328763      0.962163
O       1.80990      3.86095      7.21837         0.459009      0.071593     -0.312704
O       1.95120      0.03889      7.14361         0.091620     -0.111139     -0.163915
O      13.40085      4.09434      6.94754         0.185659     -0.524290      0.704504
O      13.45061      0.20608      7.01748         0.043169     -0.749390      0.016702
O       1.85036      3.93691     11.48231        -0.100446     -0.303115     -0.154075
O       1.92875     15.32308     11.38290         0.523331     -0.035289      0.324935
O      13.47309      3.98539     11.49946         0.468477      0.740874      0.190589
O      13.34364     15.55156     11.52610         0.276447     -0.529016     -0.024563
O       1.74757      7.67646      2.68606         0.612337      0.238199      0.187318
O       2.01237      7.68935     15.78875        -0.832306      0.179798      0.336629
O      13.56921      7.88925      2.69954        -0.261501     -0.601712     -0.057674
O      13.26878      7.83320     15.83538         0.926369     -0.452308     -0.629867
O       1.93409      7.64964      7.05780        -0.188117      0.832126      0.249961
O      13.43937      7.88605      6.84861        -0.153310     -0.414904      0.351325
O       1.97583      7.74202     11.55186        -0.202162     -0.963783     -0.518275
O      13.31037      7.93713     11.40663         0.506557     -1.373100      0.112028
O       2.07948     11.54421      2.76865        -0.321644      0.342913      0.266551
O       1.94919     11.49118     15.72186        -0.317620     -0.699785      1.003319
O      13.29410     11.69294      2.68543         0.902196     -0.216235      0.147747
O      13.45233     11.67536     15.78436        -0.469268     -0.743457     -0.051063
O       1.86107     11.44238      7.00013         0.076023      0.938583     -0.005681
O      13.32954     11.62349      7.17371         1.129661      1.741366     -0.824940
O       1.79189     11.49285     11.30406        -0.297970      0.411347      0.181113
O      13.56375     11.66262     11.37360         0.090527      0.245362      0.495708
O       5.78522      3.78703      2.76519        -0.131542      0.706803      0.067276
O       5.79900      3.93593     15.71539        -0.189191     -0.955944      0.554896
O       5.75783      0.09987      2.75733        -0.217970     -0.355103      0.546093
O       5.63544     15.35853     15.60459         0.483888     -0.117502      0.300933
O       5.75084      3.84498      7.08299         0.432679      1.460883      0.171731
O       5.71223      0.09210      7.17591         0.181122     -1.233499      0.162108
O       5.78680      3.87417     11.28037        -0.032297      0.318307      0.900846
O       5.76582     15.34370     11.50938        -1.156727      0.910755     -0.235861
O       5.89959      7.70563      2.82828        -1.040380      0.096725     -0.527419
O       5.72820      7.80631     15.79400         0.010427     -0.314564      0.159965
O       5.77848      7.73068      7.06067        -0.760077     -0.598415     -0.128119
O       5.77455      7.73189     11.45828        -0.789042      0.637827      0.017748
O       5.85561     11.51842      2.70460        -1.084141      0.804036      0.140314
O       5.72021     11.49524     15.71486        -0.672440      2.290004      0.713113
O       5.76608     11.53869      7.18939        -0.209507      0.536387     -0.653121
O       5.86687     11.57383     11.32642        -0.102313     -0.348218     -0.012432
O       9.61506      3.94749      2.80974        -0.399972     -0.458307     -0.580892
O       9.52317      3.84259     15.75222        -0.233287      0.782984      0.078647
O       9.59149     15.47048      2.79974         0.213220      0.061274     -0.139823
O       9.52338     15.43701     15.76923        -0.283042     -0.229834     -0.140839
O       9.58830      4.00246      7.02229        -0.104484      0.147816      0.420290
O       9.60646     15.45039      6.97629         0.015060     -0.050565      0.311362
O       9.48382      3.92096     11.40839         0.492685      0.160734      0.135255
O       9.76181     15.44526     11.54162        -0.485224      0.070562     -0.431488
O       9.59835      7.81983      2.67253         0.489595     -0.458858      0.076132
O       9.63302      7.78477     15.67748        -0.107831     -0.428240      0.776262
O       9.72975      7.83951      7.08353        -0.708233     -1.036169     -0.070293
O       9.57471      7.75066     11.49128         0.295418      0.755442     -0.140148
O       9.57229     11.60554      2.77629         0.522730      0.114803      0.194626
O       9.59247     11.56449     15.77130         0.448657      1.100162      0.336296
O       9.77076     11.62017      6.93374        -0.795009     -0.138135      0.259619
O       9.47928     11.62682     11.37326        -0.164779     -0.288424      0.248243
