  # total energy = -7883.00820496 
CRSYTAL
PRIMVEC
    15.3600000000000000    0.2300000000000000    0.0000000000000000
     0.0000000000000000   15.3600000000000000    0.0000000000000000
     0.0000000000000000    0.0000000000000000    17.440000000000000
PRESSURE
2.10237 2.39661 0.172985 0.134924 0.298489 -1.62735
PRIMCOORD
320 1
Pb       3.74301      3.84443      4.28881         0.344252     -0.077248      1.235538
Pb       3.83954      3.92265     17.35193        -0.641202     -0.479106     -0.052685
Pb       3.70621      0.08731      4.30189         0.971473     -0.456348      0.668384
Pb       3.76339     15.41366     17.21557         0.130825     -0.689079      1.589092
Pb      15.30844      4.01691      4.36720        -0.065816      0.084790     -0.112720
Pb      15.30305      4.07215     17.31574         0.158354     -0.483386     -0.023097
Pb      15.34455      0.32791      4.25746         0.199417     -0.677055      1.120336
Pb       0.01042     15.30985     17.31767        -0.254135      0.003961      0.299393
Pb       3.79263      4.03453      8.71507         0.458461     -0.214178     -0.123111
Pb       3.73519      0.06674      8.73180         0.009543      0.356126      0.048129
Pb      15.35164      4.11616      8.83276        -0.157232      0.151826     -0.100858
Pb      15.24447      0.30892      8.72896         0.558450     -0.399959      0.412925
Pb       3.88170      3.96619     13.06956         0.126436     -0.149949     -0.172687
Pb       3.84121      0.06711     12.98521         0.094824      0.203851      0.495095
Pb      15.33329      4.05571     13.03456        -0.300190      0.014996      0.027676
Pb      15.30522     15.52487     13.01560         0.127218      0.049956      0.469330
Pb       3.85268      7.70897      4.22480        -0.040203      0.522486      1.595288
Pb       3.84777      7.68221      0.01106        -0.393306      0.464433     -0.011538
Pb      15.34954      7.80941      4.22936        -0.130887      0.567085      1.116721
Pb       0.05303      7.52135     17.38482        -0.065437      0.785832      0.509623
Pb       3.82082      7.83195      8.57546         0.238327     -0.412001      0.730446
Pb      15.29222      8.00460      8.54279         0.183061     -0.273117      1.280921
Pb       3.90616      7.77972     13.05138         0.346553      0.477106     -0.303114
Pb      15.32082      7.93614     13.03165         0.140643      0.294004     -0.255011
Pb       3.84578     11.55436      4.36612        -0.078242      0.559491     -0.018320
Pb       3.91087     11.50613     17.37425        -1.048759      0.464317      0.501178
Pb      15.34843     11.67986      4.29484         0.218137      0.506717      0.183076
Pb       0.05590     11.45247     17.32422        -0.496526      0.334576      1.033882
Pb       3.75372     11.54751      8.65488        -0.183133      0.136366      0.452324
Pb      15.25457     11.75296      8.59236         0.525116      0.322933      0.967805
Pb       3.92784     11.55925     13.04468        -0.321346     -0.725469      0.369310
Pb      15.28203     11.76402     12.96995         0.294326     -1.118935      1.240842
Pb       7.61915      3.83952      4.32901         0.210345      0.200006      0.170682
Pb       7.62012      3.96781      0.02223         0.471562     -0.434210     -0.171312
Pb       7.58356      0.18020      4.32694         0.063805     -0.675196     -0.057229
Pb       7.61918     15.38532     17.38389         0.380349      0.308780      0.898016
Pb       7.77876      3.92266      8.69409        -0.682017      0.529409      0.546122
Pb       7.75127      0.19420      8.71940        -0.486011     -0.000032      0.060908
Pb       7.73488      3.90557     13.03693        -0.170743      0.795107     -0.035156
Pb       7.69774     15.39642     13.06412         0.016812      0.242675      0.153430
Pb       7.56368      7.76157      4.26515         0.129884      0.151012      0.670138
Pb       7.71322      7.69916      0.05541        -0.051056      0.327015      0.301356
Pb       7.60061      7.88076      8.56123         0.244694     -0.351138      0.865847
Pb       7.64768      7.72478     13.03073        -0.179187     -0.287472      0.386544
Pb       7.62748     11.67203      4.35758         0.197946     -0.044403     -0.033784
Pb       7.66395     11.64371      0.01266         0.365440     -0.052657      1.100243
Pb       7.65039     11.66062      8.56730         0.150205     -0.111918      0.508069
Pb       7.66224     11.49155     12.95798         0.344376      0.149959      1.192776
Pb      11.55108      3.91343      4.19525         0.134592      0.263536      0.087300
Pb      11.39796      3.89034     17.29225         0.294387      0.466015      0.904348
Pb      11.43350      0.17174      4.37167         0.187955      0.170538     -0.175988
Pb      11.47280     15.45440     17.30742         0.259438      0.469996      1.338560
Pb      11.51850      3.99879      8.68538         0.144237      0.320187      0.806864
Pb      11.55232      0.19047      8.68970        -0.237682     -0.282387      0.624950
Pb      11.44246      3.83019     13.03548         0.338443      0.518521      0.065097
Pb      11.47369     15.43065     13.08116         0.077434      0.298089      0.379475
Pb      11.61385      7.72436      4.27113        -0.284120      0.398618      0.316617
Pb      11.51839      7.75577     17.42945        -0.010712     -0.174654      0.617056
Pb      11.45730      7.89500      8.53872         0.173083     -0.327790      1.040234
Pb      11.39740      7.76171     13.06787        -0.108135      0.157812      0.331137
Pb      11.47771     11.83070      4.25464         0.119400     -0.650059      0.591708
Pb      11.52797     11.48039      0.05007         0.404006      0.730539      0.560950
Pb      11.49558     11.65757      8.69057        -0.092102      0.377621      0.006435
Pb      11.50601     11.57305     13.06753        -0.031496      0.027025      0.799665
Ti       1.96185      2.00344      2.39928         0.129812     -0.726328     -1.440947
Ti       1.90843      1.89401     15.30736        -0.793639      1.020387     -1.097954
Ti       1.93206     13.49028      2.35988         0.411511     -0.039277      0.021717
Ti       1.86423     13.43991     15.38790        -0.130050     -0.407705     -0.219341
Ti      13.47036      2.06103      2.27757         0.131911      0.884236     -0.682839
Ti      13.41737      2.11422     15.37055        -0.412356     -0.331813      0.724419
Ti      13.47780     13.64452      2.32983         0.290233      0.542582     -0.700449
Ti      13.29181     13.59658     15.46414         1.821970     -0.257545     -1.023051
Ti       1.88169      1.99001      6.74462         0.844726     -0.406293     -0.356712
Ti       1.86776     13.42008      6.68360         0.476202      0.984095     -1.547014
Ti      13.44831      2.16186      6.78844        -0.104964     -0.146693     -0.941991
Ti      13.42197     13.64878      6.65160         0.087213      0.919075      1.024493
Ti       1.92393      2.00496     11.16184        -0.296661     -0.603189      0.649662
Ti       1.97418     13.44074     11.23631        -1.048508     -0.356803     -0.703999
Ti      13.40146      2.07854     11.13893         0.140236      0.398843     -0.343874
Ti      13.36654     13.58954     11.17643         0.653187      0.415128     -1.081169
Ti       1.89579      5.85091      2.36930         0.206186     -0.984001     -1.427803
Ti       1.88910      5.85183     15.27002         0.163355     -1.131611      0.227255
Ti      13.49225      5.98736      2.26949        -0.698944     -1.327826     -0.175014
Ti      13.41044      6.00474     15.36498        -0.136497     -1.397728     -0.574111
Ti       1.82682      5.81413      6.73800         0.937523      0.081451     -0.253332
Ti      13.39387      5.96450      6.67046         0.482714      0.045229      0.438812
Ti       1.96828      5.81225     11.12709        -0.223538      0.192357     -0.004574
Ti      13.46976      5.99540     11.06565        -0.677571     -0.791549      0.522465
Ti       1.90113      9.67081      2.43840         0.074515      0.236975     -2.453308
Ti       1.84654      9.62982     15.40488         1.724805      0.525060     -0.552003
Ti      13.45918      9.80951      2.39703        -0.126544      0.227321     -1.489885
Ti      13.44001      9.75631     15.50246         0.477260      0.621355     -0.447175
Ti       1.82731      9.63331      6.65534         0.957356     -0.495164     -0.940910
Ti      13.38645      9.86106      6.62050        -0.181626     -1.016461     -2.457164
Ti       1.98604      9.62238     11.12137        -0.567753     -0.021441     -1.518282
Ti      13.38476      9.75164     11.03648         1.053809     -0.065742      0.518555
Ti       5.78353      1.97616      2.28152        -0.667976     -1.013003      0.568828
Ti       5.72724      1.92270     15.35517         0.114714      0.511480      0.973269
Ti       5.77299     13.48573      2.32859         0.152538      0.885478     -0.008190
Ti       5.79886     13.46091     15.45818        -0.763354     -0.027369     -0.545854
Ti       5.76348      2.03498      6.73839        -0.666858      0.091194      0.347904
Ti       5.67779     13.57544      6.79509         0.448669      0.690535     -0.819029
Ti       5.79666      2.05734     11.12292        -0.333289     -0.216297     -1.579856
Ti       5.79837     13.49719     11.04890        -0.277042      0.827364     -0.711809
Ti       5.66114      5.72533      2.42121         0.955866      0.632753      0.560771
Ti       5.72553      5.82190     15.48394         0.682621      0.201513     -1.504748
Ti       5.76381      5.84668      6.66125        -0.460415      0.346087      1.990747
Ti       5.76048      5.83242     10.89751         1.057622      0.640458      0.529128
Ti       5.73606      9.69383      2.35800         0.334857      0.169410     -0.193724
Ti       5.79672      9.67886     15.56056         0.049039     -1.183249     -0.904964
Ti       5.68190      9.76323      6.68966         0.905866     -1.008099     -0.033106
Ti       5.89649      9.69500     10.92940        -1.455634     -1.256305     -0.463505
Ti       9.62454      2.04938      2.28398        -0.081561     -0.845946     -1.121452
Ti       9.51276      1.96544     15.44335         0.676457      0.346251      0.396926
Ti       9.64033     13.55999      2.36462        -1.168071      0.342769     -0.941209
Ti       9.61818     13.45143     15.50973        -0.398825      0.535040     -1.244892
Ti       9.63462      2.17049      6.71849         0.135616     -1.152371     -0.368401
Ti       9.56524     13.59648      6.76559         0.298948      0.567272     -1.503180
Ti       9.57839      2.00833     11.04090         0.494178      0.708280     -0.301306
Ti       9.58674     13.51972     11.14124         0.064231      0.471638     -0.086246
Ti       9.53820      5.86429      2.41188         0.669420     -0.346884     -1.409881
Ti       9.54581      5.88236     15.44233        -0.379478     -0.582871     -0.740617
Ti       9.57428      5.92380      6.69295        -0.406685     -0.053052     -0.081908
Ti       9.64107      5.90313     10.99994        -0.965731     -0.281537     -0.171021
Ti       9.64506      9.66996      2.42672        -0.418217      0.518802     -0.580719
Ti       9.63928      9.68590     15.65351        -1.286304     -0.203805     -2.020913
Ti       9.57825      9.74407      6.61290        -0.803958     -0.132226      0.676197
Ti       9.62107      9.72046     11.01523        -0.341641     -1.056353     -1.587617
O       1.95900      1.94162      0.61150         0.028131      0.212673      0.585736
O       1.90467      1.82278     13.51617         0.020918      0.527817      1.314443
O       1.92856     13.60851      0.61104        -0.194257     -0.299247      0.015429
O       1.82190     13.42581     13.62436         0.255500     -0.154703     -0.125486
O      13.60414      2.12115      0.51049        -0.327616     -0.227699      0.319088
O      13.25604      2.01385     13.64154         0.290034      0.217626     -0.302798
O      13.47053     13.69077      0.55795         0.057938      0.011463      1.037891
O      13.32298     13.61401     13.63609        -0.085238     -0.436765      0.872515
O       1.96685      2.07276      4.94040        -0.213693     -0.363489      0.956344
O       1.97982     13.47289      4.88303        -0.100939     -0.252116      1.220804
O      13.42200      2.07585      5.00410        -0.124111      0.471484      0.746709
O      13.37162     13.69111      4.92863        -0.065039     -0.140780     -0.456359
O       1.81810      1.83200      9.43443         0.076768      0.323602     -1.074264
O       1.85249     13.39297      9.49954         0.141318      0.056941     -0.485556
O      13.52839      2.14066      9.38797        -0.114926     -0.012313     -1.134286
O      13.51601     13.58966      9.39925        -0.385641     -0.225410      0.406926
O       1.96111      5.91552      0.55653         0.014038     -0.508591      1.035636
O       1.93582      5.76379     13.49236         0.029076      0.452901      0.466764
O      13.63299      5.91732      0.52058        -0.480021      0.276538     -0.110986
O      13.47207      5.81597     13.60134        -0.121079      0.986600      0.799308
O       1.77285      5.78425      4.97705        -0.130931      0.046894     -0.031591
O      13.53379      5.94994      4.89451        -0.330959     -0.038313      0.249634
O       1.96972      5.78756      9.38498        -0.232610      0.172882     -0.401308
O      13.44298      6.11645      9.34030        -0.031864     -0.397521     -0.540496
O       1.89125      9.70938      0.59923         0.272342     -0.419397      1.377762
O       2.17559      9.60366     13.64747        -0.813141     -0.095496      0.445181
O      13.49728      9.77566      0.57887        -0.428699     -0.043013      1.003258
O      13.36561      9.85215     13.76239        -0.008181     -0.522970     -0.518295
O       1.83242      9.52400      4.87164         0.217266      0.424079      0.190310
O      13.33645      9.69542      4.77097         0.498230      0.721670      2.120853
O       1.82413      9.65253      9.30668         0.453921      0.184392      0.376561
O      13.40217      9.74973      9.28877        -0.007399      0.334969     -0.585106
O       5.61847      1.93773      0.55711         0.111597      0.345248     -0.762156
O       5.70747      1.98269     13.62326         0.239985     -0.056621     -0.134546
O       5.76158     13.46098      0.57485         0.026595      0.070881     -0.479493
O       5.73200     13.43378     13.69350         0.526511     -0.009545      0.198241
O       5.76280      1.97325      4.96615         0.183036      0.311115      0.516426
O       5.83393     13.61634      5.04627        -0.153173     -0.100976     -0.108088
O       5.87909      1.98740      9.32863        -0.156222      0.280319      0.652423
O       5.74410     13.54599      9.27651         0.137649     -0.127741      0.670903
O       5.76697      5.91011      0.70476        -0.493188     -0.783923     -1.233058
O       5.76575      5.89421     13.70159        -0.246764     -0.089211      1.160183
O       5.76713      5.86072      4.94765         0.034839     -0.168246     -1.513729
O       5.68369      5.95763      9.15523         0.239254     -0.437921      0.004126
O       5.63083      9.81153      0.58788         0.348243     -0.586506      0.588100
O       5.87888      9.52511     13.76902        -0.366002      0.549780      0.722656
O       5.83084      9.60957      4.95638        -0.582378      0.365263     -0.774276
O       5.86287      9.65078      9.14419        -0.224506      0.666233      0.637429
O       9.59864      1.99815      0.48454        -0.037829      0.283851      1.009285
O       9.68563      2.00414     13.69171        -0.530308     -0.022527      0.116706
O       9.65393     13.57047      0.58820        -0.221874     -0.052684      0.821893
O       9.62002     13.46085     13.70170        -0.221202      0.040738      0.818139
O       9.64489      2.16266      4.93471         0.166494     -0.185980      0.493271
O       9.61215     13.60494      4.92048         0.099783     -0.072685      1.463140
O       9.58341      2.27756      9.26089        -0.057276     -1.105563      0.460500
O       9.53338     13.56039      9.40147         0.349148     -0.066544     -0.459295
O       9.60792      5.81363      0.59500        -0.561394      0.093685      1.209027
O       9.45936      5.96628     13.66565         0.480244     -0.376130      0.532232
O       9.57897      5.96775      4.93052         0.151629     -0.390087     -0.217326
O       9.66064      5.88496      9.20553        -0.037472      0.036573      1.296508
O       9.66328      9.60980      0.62319         0.108031      0.325585      0.358966
O       9.53681      9.61144     13.85472         0.289076      0.389021      0.749926
O       9.52430      9.69590      4.89085         0.263765     -0.024743     -0.392139
O       9.63068      9.65302      9.20167         0.010572      0.418164      1.307415
O       3.88311      1.93951      2.85234        -0.963131      0.129884     -0.366743
O       3.79263      1.77766     15.76796         0.627992      1.343750     -0.608305
O       3.92839     13.36791      2.79839        -1.136618      0.696003     -0.027003
O       3.76687     13.43681     15.70530         1.111575      0.092105      0.222691
O       0.01600      1.93877      2.85409         0.184274      0.066230     -0.513488
O      15.29959      2.13399     15.69457         0.385532     -0.110207     -0.008330
O       0.06079     13.46351      2.87923        -0.688387     -0.152697     -0.709387
O      15.26978     13.70125     15.85316         0.556453     -0.310931     -0.325887
O       3.83111      1.97698      7.27414        -0.647419      0.092083     -0.556543
O       3.76212     13.53033      7.15512         0.329178     -0.034428      0.186744
O      15.35414      2.19654      7.12365        -0.054746     -0.052357      0.177283
O       0.02128     13.40822      7.08297        -1.027307     -0.104945      0.038848
O       3.82208      2.11393     11.54586         0.369028     -0.655375     -0.312934
O       3.83578     13.36173     11.52423         1.146929      0.391948     -0.183117
O      15.27723      2.03963     11.53036         0.759568      0.391968      0.229928
O      15.30656     13.48238     11.60134         0.008478      1.395461     -0.769594
O       3.79671      5.87689      2.87982        -0.316395     -0.803876     -0.786248
O       3.79696      5.82091     15.82493        -0.128040      0.343030     -0.028369
O       0.01881      5.75654      2.68742        -0.121321     -0.345067      0.160573
O       0.03069      5.70297     15.81258        -0.409395      0.548072     -0.545589
O       3.80901      5.96665      7.06503        -0.275721     -0.456056     -0.027753
O      15.30963      6.00113      7.27031         0.276516      0.051790     -0.535196
O       3.95802      5.60614     11.34524        -1.778733      0.984184      0.498928
O      15.33094      5.88438     11.42443         0.632467      0.417682      0.207922
O       3.81423      9.68676      2.78814         0.583659     -0.289784      0.022676
O       3.79372      9.74091     15.84285         0.957536     -0.577724      0.124000
O      15.35934      9.88222      2.65925        -0.175746     -0.208849      0.713586
O       0.02131      9.63532     15.76182        -0.610332     -0.329288      0.020194
O       3.79744      9.75523      7.11013         0.101692     -0.620824     -0.337211
O      15.31503      9.96171      6.85029        -0.612505     -0.327366      0.760960
O       3.94802      9.63984     11.42522         0.391903      0.241583      0.008250
O       0.01810      9.55696     11.48407        -0.903141      0.074735      0.159325
O       7.68433      2.09235      2.66140        -0.165663     -0.083034      0.217598
O       7.61658      1.94376     15.87142        -0.027043      0.100285     -0.503564
O       7.68463     13.52996      2.77930         0.313392      0.279226      0.008608
O       7.70941     13.55685     15.94629        -0.079372     -0.615367     -0.587492
O       7.75401      2.18973      7.10717        -0.707953     -0.665101     -0.299540
O       7.68856     13.68515      7.24452         0.137655     -0.723157     -0.490507
O       7.70700      2.04867     11.51584        -0.087290     -0.599338      0.128695
O       7.70449     13.63097     11.59176        -0.705023     -0.647970     -0.475812
O       7.62520      5.72491      2.78182         0.140658      0.280500     -0.175883
O       7.66144      5.64116     15.83427        -0.711939      1.241960      0.439359
O       7.68602      5.82055      7.14139         0.115012     -0.042455     -0.542777
O       7.65201      5.79663     11.51267         0.619996     -0.093818     -0.636251
O       7.63502      9.65649      2.85092         0.071827      0.118905     -0.796100
O       7.68122      9.77827     16.07407         0.362660     -0.987781     -0.324000
O       7.64285      9.84800      7.04793         0.857897     -0.250503     -0.073603
O       7.72029      9.66277     11.44777         0.038497      0.093001     -0.114537
O      11.57741      2.06129      2.67509        -0.580723     -0.018620      0.102751
O      11.45934      2.08026     15.90137         0.483135     -0.264630     -0.648261
O      11.52954     13.63968      2.70214         0.302107      0.029874      0.302848
O      11.47181     13.53863     15.98418         0.442295     -0.549825     -0.525926
O      11.56792      2.10018      7.31037        -0.513266      0.339630     -0.901003
O      11.60011     13.60914      7.23331        -1.380026      0.047358     -0.259258
O      11.50026      2.01685     11.47327        -0.818487      0.046362      0.013094
O      11.45784     13.48108     11.66867         0.038711      0.306599     -1.019486
O      11.55050      5.89165      2.67153        -0.188491      0.228512      0.197002
O      11.39756      6.00453     15.84615         1.657169     -0.470850     -0.423346
O      11.51923      5.95438      7.14700         0.302781      0.030248     -0.749799
O      11.46741      5.98763     11.53349         0.213224     -0.313646     -0.443681
O      11.53957      9.76483      2.86778        -0.433413     -0.077947     -0.702068
O      11.54895      9.67450     15.97181        -0.549688     -0.060958     -0.146476
O      11.48634      9.74884      7.00845         0.400423      0.217274      0.005360
O      11.47181      9.65403     11.46213         0.368341     -0.057035      0.023099
O       1.96987      3.85382      2.79346        -0.355987      0.921890     -0.351734
O       1.87156      3.88179     15.61473         0.672675     -0.360917      0.436726
O       1.95493      0.04561      2.79474        -0.126047     -0.040946     -0.197827
O       1.86947      0.04759     15.72352        -0.211317     -0.675545      0.226264
O      13.43221      4.00066      2.63232         0.362603      0.362014      0.503007
O      13.41289      4.07529     15.70021        -0.169823     -0.385128      0.425556
O      13.48123      0.22447      2.90252        -0.212747     -0.506668     -0.926945
O      13.36194     15.45840     15.76296        -0.169015      1.204672      0.076413
O       1.89555      3.92170      7.15418        -0.008708     -0.503286      0.137823
O       1.83251     15.36573      7.15606         0.283486      0.585076     -0.169766
O      13.48035      4.10421      7.17494        -0.212132     -0.460866     -0.212272
O      13.31644      0.23725      7.24273         1.220312     -0.259084     -0.681710
O       1.87753      3.87525     11.47851        -0.160857      0.291963      0.091355
O       1.97961      0.05192     11.62002        -0.329313     -1.294668     -0.754087
O      13.34597      3.96620     11.52154         0.185484      0.892802     -0.123047
O      13.33945     15.52103     11.41403         0.199684     -1.136417      0.457636
O       1.86172      7.66524      2.77042         0.302879      0.839534     -0.157457
O       1.81251      7.74113     15.80093         0.703481     -0.714004     -0.379903
O      13.47053      7.88979      2.69580        -0.121673     -0.626177     -0.128222
O      13.46693      7.84969     15.85632         0.040173     -0.412662     -0.203712
O       1.93964      7.74465      7.16540        -0.914364      0.326852     -0.474347
O      13.50488      7.89908      7.01630        -0.488967      0.691727     -0.216780
O       1.95861      7.76384     11.52966         0.129957     -1.803739      0.129972
O      13.53778      7.85450     11.51748        -0.660447      0.449722      0.082123
O       1.94641     11.54016      2.79141        -0.259789      0.217801      0.182544
O       1.84904     11.59027     15.90288         0.275916     -0.397363     -0.640865
O      13.45416     11.75820      2.70490        -0.127720      0.058814      0.237304
O      13.45574     11.64362     15.90346        -0.676710      0.651317     -0.075907
O       1.96647     11.49666      7.01845        -0.402162      0.875898      0.314051
O      13.36892     11.78946      7.08503         0.141648     -1.531443     -0.228727
O       1.94694     11.41376     11.55266         0.117569      1.805189      0.361373
O      13.33294     11.63275     11.51748         0.061677     -0.221826     -0.262393
O       5.59370      3.82909      2.78844         0.568205      1.081917     -0.297569
O       5.71330      3.90999     15.81399        -0.493868     -0.905532      0.203812
O       5.76725      0.11275      2.73041         0.178056     -0.640408      0.127616
O       5.83896     15.33594     15.85562        -0.655727      0.738007     -0.587628
O       5.62711      4.00480      7.17327         0.521915     -0.878158     -0.502639
O       5.73777      0.15747      7.11442         0.314714      0.010088      0.381399
O       5.78393      3.91814     11.45534         0.437094      0.056639      0.214553
O       5.70993      0.11806     11.38874         0.089467     -1.144163      0.570155
O       5.68966      7.70363      2.76719         0.283324      0.631949     -0.316906
O       5.81143      7.72903     16.07572        -0.194855      0.000828     -0.702666
O       5.85890      7.83923      7.07797        -0.671793     -0.299504     -0.423621
O       5.80451      7.76982     11.30850        -0.103223     -0.193860      0.304891
O       5.82130     11.63655      2.78911        -0.180505     -1.356271      0.170333
O       5.91020     11.53322     15.93636        -1.017907      1.256121     -0.650339
O       5.69696     11.67322      6.98697         0.243650     -0.108915      0.598214
O       5.91670     11.58291     11.37998        -0.421801      0.317658      0.027594
O       9.57340      3.89045      2.75746         0.423710      1.000922      0.086332
O       9.51779      3.91617     15.89810         0.295064     -0.220912     -0.422332
O       9.57180      0.16971      2.78819         0.176992     -0.226131     -0.066342
O       9.66808     15.37999     15.88732        -0.729139      0.925410     -0.635216
O       9.67206      3.98266      7.16481         0.146634      0.695069     -0.518156
O       9.64983     15.48697      7.13892         0.055074      0.748637     -0.030733
O       9.59886      3.87740     11.45751         0.125908      1.319419      0.253767
O       9.59657     15.49452     11.56089        -0.136739     -0.573490     -0.445699
O       9.57596      7.79009      2.67129        -0.002972     -0.704554      0.439880
O       9.48468      7.75230     15.91087         0.003659      0.278834      0.305880
O       9.54315      7.78226      7.16575         0.153085      1.004839     -0.986467
O       9.49484      7.78357     11.59345         0.691923      0.102711     -0.954649
O       9.56305     11.60344      2.78919         0.335779      0.542970     -0.155418
O       9.63209     11.62101     15.98230         0.049240     -0.578193     -0.136275
O       9.62865     11.68774      7.13116         0.010060     -0.062347     -0.219693
O       9.55869     11.57021     11.42381         0.007827      0.306752      0.147123
