  # total energy = -7881.50157166 
CRSYTAL
PRIMVEC
    15.3600000000000000    0.2300000000000000    0.0000000000000000
     0.0000000000000000   15.3600000000000000    0.0000000000000000
     0.0000000000000000    0.0000000000000000    17.440000000000000
PRESSURE
0.780283 0.748876 0.669699 0.025475 -0.020253 -1.5296
PRIMCOORD
320 1
Pb       3.87086      3.78931      4.37324        -0.334235     -0.077739     -0.055710
Pb       3.83185      4.02522     17.32835        -0.261189     -0.115614     -0.345021
Pb       3.71084     15.30461      4.29042        -0.196498      0.926505     -0.361472
Pb       3.74080      0.08258     17.34052        -0.269004     -0.223666      0.189479
Pb      15.28044      3.95725      4.30520         0.251842     -0.022342     -0.508791
Pb      15.26226      4.10363     17.33850         0.105181      0.171955      0.010557
Pb      15.30736     15.57966      4.32126         0.297267      0.023055     -0.647185
Pb      15.28310     15.57679      0.03405         0.483353     -0.295067     -0.597801
Pb       3.89192      3.98698      8.74250        -0.290272     -0.757203     -0.482561
Pb       3.79855     15.30699      8.75382         0.153265      0.199446     -0.553962
Pb       0.05978      3.92801      8.75128         0.027739      0.179206     -0.609532
Pb       0.01696      0.07666      8.65330        -0.088584     -0.794672      0.478117
Pb       3.93315      3.98899     13.05149         0.009887     -0.640345     -0.304470
Pb       3.81263      0.16479     13.08223        -0.353576      0.162620     -0.408614
Pb       0.06854      3.84550     13.11718        -0.025853     -0.430153     -0.664834
Pb       0.02522      0.01907     13.06625         0.109349      0.052343     -0.168300
Pb       3.81737      7.71388      4.25338         0.591108     -0.202791     -0.109666
Pb       3.78599      7.90631     17.35883         0.135532     -1.170647     -0.327386
Pb      15.26978      7.80274      4.20776        -0.026187      0.288947      0.115674
Pb      15.35452      7.95487     17.34983         0.033233     -0.229085     -0.166518
Pb       3.77024      7.73806      8.65438        -0.195041      0.132160     -0.522077
Pb      15.28563      7.99555      8.57216         0.332510     -0.174253     -0.109469
Pb       3.94398      7.85905     13.03140         0.058850     -0.364912      0.151711
Pb      15.31766      7.89199     12.97880        -0.296813      0.127348     -0.083094
Pb       3.96670     11.54445      4.43304        -0.473681     -0.313581     -0.630702
Pb       3.83895     11.58034     17.38236        -0.016676      0.632940     -0.231078
Pb      15.33570     11.69302      4.29296        -0.188684      0.073843     -0.688891
Pb       0.09848     11.46064     17.38667        -0.042105      0.371426      0.272847
Pb       3.61217     11.52097      8.68891        -0.212357      0.456667      0.019400
Pb      15.20245     11.64337      8.62321         0.417153      0.719245     -0.214371
Pb       3.83042     11.61332     13.10661         0.008571      0.242954     -0.657368
Pb       0.04078     11.47696     13.00276        -0.164624      0.404500     -0.205675
Pb       7.56104      3.77523      4.43003         0.122666      0.857496     -0.045337
Pb       7.62702      3.96785      0.01489         0.491080     -0.260483     -0.918278
Pb       7.52055      0.16328      4.40660         0.021775     -0.615105     -0.627395
Pb       7.62834      0.13050      0.03640         0.221103     -0.259050     -0.447445
Pb       7.66752      4.00121      8.77677         0.391448     -0.483185     -0.231056
Pb       7.60789      0.11998      8.81609         0.648192     -0.444721     -0.696470
Pb       7.73983      3.89747     13.05196        -0.417664     -0.412550     -0.130249
Pb       7.62713     15.45962     13.09599         0.886445     -0.512987     -0.312940
Pb       7.69650      7.87762      4.29684        -0.617792     -0.368439     -0.301091
Pb       7.79067      7.87232     17.42746        -0.138149     -0.347418      0.016914
Pb       7.70116      7.75573      8.69658         0.115490     -0.221965     -0.507578
Pb       7.65829      7.63196     13.02355        -0.298748      0.590856     -0.078389
Pb       7.78925     11.63464      4.31802        -0.538277      0.113113     -0.378046
Pb       7.74881     11.70132      0.00837        -0.719895      0.166472     -0.132957
Pb       7.49783     11.64291      8.77416         0.438204      0.464333     -1.053719
Pb       7.64219     11.42039     12.95785        -0.129507      0.421832      0.410967
Pb      11.50936      3.99220      4.27539         0.223344     -0.223544     -0.516638
Pb      11.40522      3.87812     17.29398         0.252973      0.509497     -0.161858
Pb      11.39104      0.23868      4.31645         0.595134     -0.513434     -0.126687
Pb      11.51543     15.45739     17.43287        -0.174812      0.043020     -0.734743
Pb      11.46831      4.02545      8.69719        -0.395834     -0.156752     -0.294688
Pb      11.61437     15.42675      8.69526        -0.631619     -0.101837     -0.071924
Pb      11.54944      3.86317     12.99314        -0.347777      0.678073      0.158636
Pb      11.56313     15.43809     13.14208        -0.405389     -0.139101     -0.393492
Pb      11.49786      7.78855      4.24005         0.101431     -0.090948     -0.314981
Pb      11.61293      7.86933     17.39334        -0.414852     -0.322333     -0.520363
Pb      11.42404      7.79348      8.69836         0.011018     -0.175097     -0.390153
Pb      11.47570      7.71098     13.10275         0.053686      0.003092     -0.881745
Pb      11.48340     11.82600      4.40708         0.330533      0.158335     -0.625610
Pb      11.61435     11.53758      0.09939         0.052152      0.423716     -0.667433
Pb      11.39049     11.64174      8.70532         0.147284      0.400532     -0.556079
Pb      11.58399     11.54806     13.16121        -0.396596      0.458828     -0.420348
Ti       1.90234      2.00464      2.24853         0.317352     -1.417002     -0.660305
Ti       1.90760      1.95326     15.35152         0.075987     -0.823274     -0.353995
Ti       1.93801     13.36680      2.32047        -1.675717      1.054433     -0.874685
Ti       1.84452     13.41908     15.33608         1.076253      0.836693      0.678578
Ti      13.41720      2.04619      2.19591        -0.434750      1.076424      1.480258
Ti      13.50986      2.07793     15.38318        -0.986224     -0.155711      1.783760
Ti      13.40337     13.72843      2.28903         0.289904     -1.372224      1.651848
Ti      13.41925     13.47758     15.44650        -0.122418      1.904887     -0.678006
Ti       1.86437      1.95696      6.73395         1.506883      0.246911     -0.239364
Ti       1.83874     13.49793      6.57990         0.029520     -0.256323      2.516686
Ti      13.48014      2.14109      6.65636        -1.148342      0.043936     -1.088634
Ti      13.46231     13.68074      6.63293        -0.332842     -0.967224     -0.115206
Ti       1.88720      2.01989     10.97801         0.225895     -0.432256      0.982456
Ti       1.90828     13.53311     11.06138        -0.607617     -0.544632     -1.102687
Ti      13.39592      2.14629     11.03645         0.866621     -1.049249      0.900975
Ti      13.42976     13.65594     11.14136        -0.040656      0.312990     -0.928177
Ti       1.88767      5.70778      2.34158         0.310156      0.055632     -1.214078
Ti       1.84179      5.72941     15.30642         1.180234      0.652766      0.408074
Ti      13.43149      5.95857      2.19362        -0.079747     -0.586728     -0.553126
Ti      13.38704      5.99732     15.28434        -0.315848     -0.760819      3.272855
Ti       1.99018      5.80446      6.53802        -1.396465     -0.463337      2.094896
Ti      13.41667      5.94997      6.72561         0.234998     -0.036249      0.985478
Ti       1.84558      5.86627     11.05515         0.782542     -0.518815      2.740287
Ti      13.44690      5.91878     10.91321        -1.623328      0.616658      1.981880
Ti       1.89732      9.52328      2.31680        -0.549018      1.013678      1.103833
Ti       1.97662      9.60711     15.30899        -1.463304      0.340037      1.579579
Ti      13.34619      9.78356      2.28562         0.834269      0.352311     -0.368883
Ti      13.43020      9.77997     15.38494         0.275683     -0.233656      1.954202
Ti       1.87690      9.69209      6.55013        -0.031378     -0.502982      0.015491
Ti      13.34177      9.76366      6.49645         0.669427      0.827716      0.518676
Ti       1.91747      9.64996     11.05382        -0.302192      0.728842     -0.539088
Ti      13.38589      9.83020     11.00829        -0.136044     -1.010814      0.809251
Ti       5.71655      1.99187      2.27638        -0.805559     -1.483788     -0.563055
Ti       5.76190      1.95030     15.40238         0.145480      0.464988      0.325251
Ti       5.70274     13.46248      2.28153         0.611148      0.679235      0.083888
Ti       5.70418     13.52644     15.37616         0.199408     -0.629173      1.428396
Ti       5.75871      1.94773      6.80890        -0.415123     -0.085393      0.427378
Ti       5.60900     13.49395      6.57721         1.525897      0.468595      2.038719
Ti       5.81533      1.87963     11.03712        -0.877602      1.922203     -0.056741
Ti       5.77238     13.45739     11.07218        -0.154433      0.019851     -1.396429
Ti       5.82075      5.70799      2.29487        -0.768986      1.431416      2.742507
Ti       5.78155      5.86450     15.39224        -0.380841      0.729699      0.104768
Ti       5.74419      5.82819      6.70167         0.499404     -0.029173      0.491648
Ti       5.66361      5.81899     10.96829         1.656382     -0.696416     -0.533224
Ti       5.64093      9.67682      2.28685         1.904144     -0.122796      0.986121
Ti       5.78992      9.68569     15.51742         0.051868      0.195271     -1.549723
Ti       5.73997      9.67578      6.64977         0.031959      0.036876     -0.006038
Ti       5.74694      9.60733     10.90452        -0.170795      0.237297      2.370681
Ti       9.52359      2.08786      2.31807         1.324198     -0.819324     -0.833898
Ti       9.63676      1.95563     15.39408        -0.135974      0.348957     -0.033900
Ti       9.57624     13.63064      2.27483        -0.510466      0.003977     -0.050803
Ti       9.56930     13.45950     15.34780        -0.265641      2.329194     -0.320328
Ti       9.63599      1.96880      6.62047        -0.107880     -0.179419      1.455572
Ti       9.60409     13.51553      6.59653        -0.406136      0.879923      0.858373
Ti       9.58598      1.98034     11.04320        -0.303330     -1.225153      0.154020
Ti       9.59843     13.38922     11.09386         0.507228      2.113190     -0.230886
Ti       9.54092      5.83462      2.30817         0.227225      0.901477      0.088233
Ti       9.53895      5.88841     15.34068         1.156691     -0.336498      0.295495
Ti       9.53265      5.81976      6.61772         0.166205     -0.018048      1.394709
Ti       9.48588      5.79899     11.08686         1.144016      0.527719     -1.422393
Ti       9.59641      9.76325      2.26534        -0.830775     -0.529833      0.773586
Ti       9.52888      9.80156     15.36823         0.662703     -1.648348     -0.131316
Ti       9.56205      9.73194      6.50573        -0.071910     -0.202838      2.281925
Ti       9.57821      9.64745     11.01365         0.375025     -0.298367      1.776780
O       2.10046      1.90177      0.47702        -0.282451      0.568057     -0.205106
O       1.77559      1.93959     13.57539         0.056972      0.226855     -0.186708
O       1.78885     13.43080      0.53615         0.711353     -0.081097      0.594894
O       1.87859     13.47899     13.58778         0.087238     -0.321976     -0.831659
O      13.34986      1.95340      0.46939         0.174486      0.318074     -0.575754
O      13.46977      2.10976     13.68628         0.049477     -0.005641     -2.209946
O      13.40951     13.68871      0.57141        -0.019719      0.026416     -1.370506
O      13.39767     13.46146     13.65422         0.304394      0.168680      0.538564
O       1.90966      1.96752      4.97547        -0.319886      0.181268     -0.358542
O       1.87012     13.55812      4.87945         0.010170     -0.441162     -2.203590
O      13.54438      2.08846      4.80292        -0.268860      0.483939      1.703854
O      13.37453     13.67750      4.86730         0.381351     -0.154686     -0.162708
O       1.88177      1.93623      9.22187        -0.036403     -0.019022     -0.417379
O       1.76325     13.35398      9.25397         0.571146      0.660220      0.689560
O      13.42314      1.98231      9.33533        -0.146058      0.149440     -1.569766
O      13.41014     13.70092      9.31136        -0.150544     -0.154449      1.019356
O       1.75453      5.72747      0.53444         0.757616      0.072948      0.656579
O       1.96652      5.65008     13.53554        -0.547550      0.496777      0.172760
O      13.56645      5.94592      0.42770        -0.380623      0.453445      0.334834
O      13.35909      6.01143     13.62009         0.320439     -0.175258     -3.038959
O       1.78631      5.69202      4.84021         0.485268      0.211566     -1.073888
O      13.46357      6.01120      4.99031        -0.294530     -0.332951     -0.928419
O       1.98970      5.92291      9.40774         0.168330     -0.202853     -3.177789
O      13.40999      6.03219      9.19604         0.007821     -0.067108     -1.049400
O       2.10453      9.54733      0.58052        -0.709817      0.093651     -0.517232
O       1.95566      9.55113     13.60295        -0.102993      0.570444     -1.952571
O      13.34683      9.61994      0.47417        -0.275018      0.546566      0.069811
O      13.43665      9.83486     13.69882         0.241799      0.025975     -2.560912
O       1.90043      9.68264      4.76728        -0.019921     -0.117260      0.337033
O      13.41041      9.79942      4.72480        -0.115752     -0.357256      0.320388
O       1.85833      9.76881      9.25779         0.176679     -0.337955      0.626919
O      13.52202      9.69663      9.26141        -0.463564      0.428558     -0.034433
O       5.71229      2.03984      0.49709        -0.147626      0.187929      0.243551
O       5.78148      1.95711     13.65552         0.420771     -0.211584     -0.400880
O       5.68083     13.47678      0.51875         0.121182     -0.186604      0.278706
O       5.74080     13.44361     13.65732        -0.285687      0.220770     -1.921169
O       5.74894      1.96687      5.00012         0.379816     -0.021768      0.197228
O       5.67015     13.58008      4.84855        -0.101451     -0.047197     -1.219504
O       5.88119      1.85923      9.24707        -0.341133      0.133304      0.380113
O       5.88964     13.55628      9.25120        -0.476855     -0.357421      1.342711
O       5.86303      5.77712      0.61290        -0.193258     -0.234204     -1.922582
O       5.71092      5.98158     13.62965         0.281290     -0.376337     -0.069907
O       5.81425      5.64343      4.98469        -0.292192     -0.205454     -0.928919
O       5.89210      5.88216      9.15888        -1.147778     -0.012984      0.481760
O       5.84874      9.80656      0.56026        -0.655198     -0.463834     -0.955853
O       5.83958      9.59374     13.71605        -0.464485      0.152192     -0.037513
O       5.82886      9.69099      4.87906        -0.538365      0.278084     -0.091591
O       5.77289      9.69804      9.21380        -0.263328     -0.277182     -1.744957
O       9.52187      2.05546      0.53324         0.236784      0.392180      0.239373
O       9.63547      1.98096     13.62052        -0.234236      0.083714     -0.212669
O       9.40045     13.61446      0.49428         0.582858     -0.464357      0.104341
O       9.52138     13.52727     13.57610         0.199880     -0.088439      0.561690
O       9.69127      1.83924      4.84133        -0.814616      0.902620     -0.181120
O       9.72758     13.54858      4.80343        -0.470597     -0.015371      0.143941
O       9.46188      1.98693      9.31276         0.633658      0.146592     -0.271409
O       9.80144     13.40700      9.30952        -0.323065     -0.176828      0.066091
O       9.49599      5.77056      0.56553        -0.153108      0.234493     -0.209325
O       9.63426      5.78261     13.56240        -0.411924      0.502382     -0.435587
O       9.74394      5.77009      4.91179        -0.248973      0.173415     -1.333171
O       9.51704      5.81252      9.27643         0.083471      0.405389      0.254710
O       9.50576      9.63919      0.50528         0.368451      0.715052     -0.589306
O       9.50590      9.72726     13.60640         0.007984     -0.074384      0.212145
O       9.59985      9.74988      4.78636        -0.157688     -0.082038     -0.871301
O       9.61673      9.65496      9.30405         0.007177      0.078352     -1.430031
O       3.76001      1.91426      2.77225         1.336431      0.692228      0.008769
O       3.84137      1.99267     15.46587         0.096857      0.365931      1.122226
O       3.76356     13.51281      2.66238         0.820285      0.043865      0.394861
O       3.77012     13.29191     15.67836         0.407459      0.717035      0.412023
O      15.35208      2.21309      2.54562        -0.899273     -0.052499      0.313423
O       0.01109      1.94228     15.80685        -0.011517     -0.411796      0.194266
O      15.32143     13.62936      2.66493        -0.185238      0.116678      0.572670
O       0.06197     13.45916     15.86394        -1.770097     -0.223036     -0.083020
O       3.79590      2.01292      7.15633         1.010668     -0.600522      0.126658
O       3.77611     13.53385      7.05152        -0.215349     -0.449392     -0.061134
O      15.31853      2.16886      7.02579         0.018327      0.239960      0.519857
O      15.34693     13.73896      7.07693        -0.578246     -0.332192     -0.275948
O       3.87592      2.07229     11.46336        -0.504897     -0.395543     -0.097588
O       3.77795     13.43128     11.29959         1.745058      0.070833      0.634412
O      15.34502      2.07229     11.36084         0.550627      0.208801      0.308985
O       0.00459     13.48617     11.46503        -0.538537     -0.448360      0.374307
O       3.87412      5.69808      2.75356        -0.154078      0.127021     -0.170619
O       3.80747      5.92557     15.77977        -0.219075     -0.740118      0.268675
O       0.00193      5.69248      2.64182        -0.968203      0.417870      0.570086
O       0.00691      5.80490     15.72018        -0.283107     -0.015854     -0.250866
O       3.84535      5.68260      7.08215        -0.238680      0.573533      0.039816
O       0.06627      5.72681      7.11317        -0.339014      0.246496     -0.050912
O       3.91626      5.73462     11.40093        -1.951966      0.286051      0.126127
O      15.29469      6.02807     11.30477         0.742285      0.361375      0.534776
O       3.80596      9.66076      2.74715        -0.216912     -0.514873      0.114233
O       3.79991      9.70707     15.76077         0.789532     -0.074700      0.337087
O      15.26799      9.68089      2.58771         1.285939      0.523648      0.181443
O      15.32508      9.85993     15.87071         0.741543     -0.298614     -0.400465
O       3.75368      9.75660      7.04560         0.690113     -0.037877      0.034314
O       0.02508      9.62334      6.94022        -0.902037     -0.739362      0.157185
O       3.80497      9.71449     11.37817         0.770702     -0.305028      0.119981
O      15.31693      9.65516     11.46811         0.207261      1.031885     -0.085783
O       7.69114      1.92017      2.70521        -0.985997      0.715971      0.397391
O       7.72093      2.02529     15.81971        -0.649297     -0.337948     -0.062416
O       7.61645     13.47805      2.67781         0.069430     -0.212241      0.252852
O       7.56733     13.69862     15.74328         1.646443     -0.481787      0.293616
O       7.78889      1.94276      7.20274        -0.975402     -0.448958     -1.081924
O       7.77568     13.58296      7.00721        -0.505036      0.003519     -0.164218
O       7.68384      1.97953     11.54931        -0.488196     -0.134876     -0.014394
O       7.67111     13.50128     11.47084        -0.752533     -0.105840     -0.117092
O       7.65103      5.76539      2.88223         0.020345     -0.437502     -0.336488
O       7.72807      5.85633     15.79166        -1.049421      0.298139     -0.052751
O       7.60923      5.80095      7.07540         0.735094      0.622195     -0.055484
O       7.57773      5.89566     11.30148         1.072232     -0.120561      0.975816
O       7.67926      9.89890      2.72340        -0.468377     -0.441077      0.007781
O       7.62977      9.76168     15.78151         1.115585     -0.195568      0.513356
O       7.56234      9.71389      7.14882         1.029589     -0.305444     -0.440460
O       7.65724      9.56898     11.40225        -0.113947      0.066429     -0.174168
O      11.48805      1.96388      2.66564        -0.025065      0.465103      0.110478
O      11.52448      2.07769     15.77827         0.105978      0.166937      0.228159
O      11.47257     13.69550      2.70630         0.370123     -0.389989     -0.307532
O      11.50762     13.49997     15.81867         0.064385     -0.169503      0.071618
O      11.55740      2.18914      7.01268        -0.062846     -0.090851      0.029102
O      11.58917     13.41204      7.02535        -0.397891      0.404831      0.388897
O      11.47071      2.02427     11.46179         0.698164      0.234683     -0.063417
O      11.51201     13.52694     11.58901         0.302393      0.269032     -0.163132
O      11.50926      6.01127      2.53231        -0.404304      0.220662      0.688040
O      11.51610      6.02856     15.69362        -0.579666     -0.343553      0.362964
O      11.41766      5.87473      7.13330         0.755337      0.163194      0.014702
O      11.52643      5.72474     11.37177         0.103207      0.355469      0.151807
O      11.48563      9.60179      2.60498        -0.756924     -0.014879      0.097233
O      11.52292      9.86442     15.71164        -0.961131     -0.056359      0.584276
O      11.50199      9.81709      6.92104        -0.630899     -0.534532     -0.026649
O      11.44967      9.84235     11.51057         0.972756     -0.560603     -0.418947
O       1.83826      3.85516      2.69475         0.531091      0.102068      0.350554
O       1.83718      3.83256     15.68878         0.411638      1.099237      0.398388
O       1.85314      0.11218      2.65216        -0.054163     -1.074790      0.542682
O       1.98948      0.04617     15.73099        -0.157697     -0.403012      0.088104
O      13.29882      4.02830      2.51808         0.312041      0.101439      0.572065
O      13.43677      4.02363     15.69198         0.041828      0.511961      0.351559
O      13.44033      0.21542      2.74266         0.371944     -0.044029     -0.287239
O      13.42669     15.52818     15.81788         0.042551     -0.633968     -0.096793
O       2.00664      3.86670      7.08342        -0.791286      0.582346      0.314167
O       1.85085     15.35745      6.98150         0.222954      0.766245      0.610391
O      13.43689      4.08802      7.25717         0.273783     -0.757298     -0.615181
O      13.42090     15.55675      7.06434        -0.143626      0.788307     -0.086867
O       1.85076      3.90716     11.36652        -0.120229     -0.235774      0.105477
O       1.99619      0.05760     11.49097        -0.124070      0.347754     -0.285902
O      13.55840      4.00446     11.34961        -0.340803      0.243746      0.189914
O      13.51488     15.56018     11.60459        -1.042017     -0.375145     -0.246036
O       1.94814      7.65415      2.77160         0.017472     -0.112306     -0.197566
O       1.88904      7.77547     15.67862         0.092553     -0.994250      0.474236
O      13.41276      7.87423      2.65975         0.104096     -1.262597      0.411663
O      13.35722      7.89809     15.68988         0.534753     -0.158371      0.399107
O       1.95656      7.73028      7.07322         0.317897     -0.298826     -0.455266
O      13.36704      7.86460      7.09605         0.195974      0.318673     -0.268396
O       2.01085      7.77072     11.40922        -0.210506     -0.504284      0.298105
O      13.30516      7.87062     11.44486         0.125060     -0.108979      0.101461
O       1.88963     11.51355      2.69606        -0.129228     -0.468408      0.062476
O       1.86851     11.55451     15.80394        -0.107820     -1.009115     -0.172628
O      13.34506     11.67471      2.54142        -0.111169      0.240877      0.350046
O      13.47664     11.68700     15.87205        -0.008994     -0.075687      0.505960
O       1.80531     11.57753      7.05369         0.318007     -0.178605     -0.349887
O      13.48724     11.65385      6.91899         0.225074     -0.082350      0.135126
O       1.96742     11.63079     11.45196        -0.749755     -1.694906      0.586033
O      13.41837     11.70404     11.49738         0.589692     -0.361074     -0.297935
O       5.77885      3.79151      2.79006         0.085985      0.697826     -0.031275
O       5.81092      4.02150     15.79175        -0.414280     -1.184782      0.102734
O       5.74064      0.09293      2.64019         0.019587     -0.359702      0.395578
O       5.67520     15.42640     15.90173        -0.152467      0.621632     -0.570817
O       5.84407      3.81632      7.24339        -0.549834      0.224017     -0.446143
O       5.72013     15.34089      7.19125         0.111145      0.977119     -0.340501
O       5.78012      3.88049     11.52579         0.425833      0.346892     -0.436450
O       5.63933     15.43246     11.36708         0.474704     -1.081826      0.630974
O       5.76013      7.74942      2.68187         0.027253     -0.117700      0.149856
O       5.73828      7.76093     15.79434         0.152835      0.334095      0.716476
O       5.60809      7.76453      6.87166         0.070980     -0.154594      0.662983
O       5.72570      7.69526     11.39624        -0.301775      1.031757     -0.051666
O       5.57245     11.56502      2.72890         0.322990      0.685512      0.109051
O       5.81911     11.60836     15.80476        -0.358468     -0.002614      0.300210
O       5.82508     11.67609      6.94715        -0.503231     -0.709226      0.387863
O       5.80065     11.51586     11.27753        -0.052829      0.338686      0.509703
O       9.69586      3.97894      2.72868        -0.420831     -0.582587      0.190094
O       9.59102      3.98905     15.70336         0.219478     -0.095881      0.482654
O       9.53785     15.47643      2.51489        -0.030012      0.153860      0.765363
O       9.76141     15.46196     15.74624        -0.726912     -0.312719      0.076579
O       9.46996      3.93751      7.12701         0.633780     -0.224698     -0.508571
O       9.76085     15.42549      7.02927         0.225627      0.492476     -0.096253
O       9.51635      3.94474     11.39883        -0.047876     -0.666965      0.521628
O       9.52320     15.38892     11.34383         0.259909      0.516658      0.528803
O       9.28835      7.80861      2.64155         1.179170     -0.169403      0.056595
O       9.49984      7.85345     15.80545         0.438224     -0.016629     -0.231967
O       9.50693      7.79895      6.95450         0.157647      0.375619      0.200039
O       9.69273      7.70544     11.38859        -0.221049      0.608480      0.358919
O       9.70030     11.63042      2.73041        -0.057871      0.430139     -0.328221
O       9.52350     11.66326     15.71779        -0.226393     -0.451288      0.604988
O       9.52328     11.60334      6.99321         0.355260     -0.499481      0.014628
O       9.59919     11.56328     11.44383        -0.645430     -0.392209      0.039543
