  # total energy = -7880.96328873 
CRSYTAL
PRIMVEC
    15.3600000000000000    0.0000000000000000    0.0000000000000000
     0.0000000000000000   15.3600000000000000    0.0000000000000000
     0.2400000000000000    0.0000000000000000    17.440000000000000
PRESSURE
2.67577 2.15917 -0.547763 0.237304 -0.736792 -0.00368
PRIMCOORD
320 1
Pb       3.82748      3.80561      4.34557         0.266988      0.379916      0.192732
Pb       4.04393      3.83411     17.38124        -0.221191     -0.268332      0.310713
Pb       3.91452      0.03437      4.32993        -0.251444      0.139309      0.417104
Pb       3.94398      0.00359     17.39270         0.198922      0.041600      0.582346
Pb      15.39416      3.87471      4.29912         0.104153     -0.331677     -0.019640
Pb       0.28142      3.79747     17.39629        -0.157539      0.314109      0.577273
Pb      15.38370      0.08445      4.29996         0.097173      0.111325      0.703896
Pb      15.34421     15.21858      0.03822         0.037924      0.658078      0.059704
Pb       3.87555      3.91932      8.71361         0.710289     -0.820438      0.564755
Pb       3.95812     15.30325      8.56421         0.342614      0.147951      1.322585
Pb       0.13213      3.80323      8.62049        -0.558385      0.176101      1.258522
Pb      15.38516     15.32662      8.58541         1.229012     -0.443031      1.807730
Pb       4.03412      3.85914     12.98989        -0.142534     -0.701374      1.246272
Pb       3.99701     15.35962     13.04354         0.259791      0.159827      0.415902
Pb      15.48565      3.92381     12.96566        -0.052168     -1.013186      1.395930
Pb      15.51100     15.35991     13.07686         0.280790      0.185467      0.711723
Pb       3.86335      7.68478      4.39269         0.126796     -0.400794     -0.315538
Pb       4.03624      7.69641     17.36182        -0.142325      0.118096      0.332510
Pb      15.41710      7.64090      4.29088         0.346357      0.379917      0.701439
Pb      15.59856      7.64832     17.41285         0.172033     -0.058094      0.211974
Pb       3.96967      7.55464      8.62264         0.144266      0.727315      0.861143
Pb      15.34686      7.58869      8.57363         0.304400      0.462952      0.973842
Pb       3.92146      7.51519     13.11799         0.220008      0.978464      0.433109
Pb       0.18704      7.62950     12.94252         0.053018      0.236901      0.994465
Pb       3.96139     11.44242      4.37999        -0.333026      0.095822      0.085095
Pb       3.93635     11.58550     17.30027         0.703021      0.261161      1.382591
Pb      15.36632     11.54342      4.41641         0.225797     -0.577279      0.150760
Pb      15.53901     11.56244     17.35768         0.398047     -0.639731      0.530075
Pb       3.97899     11.48582      8.66692        -0.053120     -0.028415      0.499050
Pb      15.34742     11.53196      8.67793         0.453456     -0.125777      0.263859
Pb       4.03610     11.55619     12.84216        -0.016747     -0.367077      1.958830
Pb      15.52798     11.53125     12.99072        -0.230781      0.130503      0.392070
Pb       7.74143      3.87326      4.21726        -0.586280      0.476417      1.247777
Pb       7.85908      3.72524     17.32109        -0.011023      0.720560      1.004088
Pb       7.73447     15.33004      4.23282        -0.052806     -0.110700      1.070067
Pb       7.92721     15.33993     17.40785        -0.387690     -0.586584      0.131419
Pb       7.79698      3.83166      8.66920        -0.107180     -0.193686      0.977633
Pb       7.72224      0.04047      8.70130         0.064396     -0.471647      0.122780
Pb       7.87076      3.77150     13.17860         0.271030      0.041565     -0.223858
Pb       7.94648     15.23926     13.09698        -0.143810      0.391384      0.019524
Pb       7.61790      7.63877      4.41016         0.449052     -0.416750     -0.443382
Pb       7.85638      7.69722     17.25499        -0.111313     -0.127630      1.356960
Pb       7.73295      7.64918      8.61540         0.203710      0.570597      0.873127
Pb       7.81890      7.60466     12.97406         0.018595      0.084329      1.101380
Pb       7.67088     11.55126      4.37592         0.550119     -0.059152     -0.241438
Pb       7.97784     11.42335     17.29415        -0.767335      0.973199      1.354810
Pb       7.80873     11.49102      8.68955        -0.237114      0.096652      0.095843
Pb       7.84270     11.39339     12.98657         0.147924      0.511179      1.088859
Pb      11.51620      3.81439      4.20236         0.612332      0.504503      1.312785
Pb      11.80328      3.74404     17.39673        -0.033275      0.063763     -0.090360
Pb      11.51553     15.35401      4.17253        -0.350657      0.135819      1.683456
Pb      11.39683     15.29040      0.04167         0.751837     -0.009975     -0.678964
Pb      11.56161      3.78921      8.63213         0.190262     -0.009180      1.159903
Pb      11.67838     15.33826      8.63562        -0.850796     -0.086902      0.891842
Pb      11.70747      3.75311     13.05294        -0.137702     -0.458570      0.260903
Pb      11.77180      0.07944     13.05245        -0.441344      0.356576      0.609805
Pb      11.50879      7.71902      4.12788        -0.063880     -0.096357      1.649586
Pb      11.72299      7.69859     17.37263         0.111539     -0.092694      0.120631
Pb      11.56078      7.65086      8.71790        -0.093384     -0.139231      0.478567
Pb      11.64864      7.67909     13.00538         0.324696     -0.832336      0.959216
Pb      11.51730     11.52436      4.42877        -0.434025     -0.121510     -0.564746
Pb      11.81324     11.49768     17.36634        -0.485837      0.204070      0.377306
Pb      11.58522     11.38990      8.70051        -0.399231      0.611982      0.512546
Pb      11.76614     11.43386     13.03761        -0.176487      0.647942      0.376725
Ti       1.96997      1.90719      2.34260        -0.577515      0.011387     -0.352212
Ti       2.01819      1.90389     15.43151         1.299401     -0.062364     -0.100411
Ti       1.93800     13.40735      2.54209         0.345180      0.022179     -1.822819
Ti       2.06138     13.42277     15.36246         1.119265      0.822455      0.015717
Ti      13.40199      1.94648      2.30693         1.556274     -0.172388     -1.611975
Ti      13.69500      1.86925     15.51900        -1.048544     -0.495369     -0.697858
Ti      13.44552     13.45453      2.45599        -0.354467     -0.206956     -0.722938
Ti      13.66578     13.38588     15.44670        -1.404953      1.004889     -1.976116
Ti       2.04051      1.89260      6.78772         0.463146     -0.337311     -2.039552
Ti       1.98704     13.36372      6.67775         0.498669      0.793474     -0.503603
Ti      13.52176      1.85866      6.74993        -0.341008      1.164290     -1.058064
Ti      13.48290     13.44267      6.64043        -0.305981     -0.156514     -0.279956
Ti       2.11907      1.89000     11.14066        -0.032414     -0.362846     -0.235336
Ti       2.09107     13.43391     11.17757        -0.343835      0.783949     -1.672732
Ti      13.73302      1.84416     11.05853        -1.455019      1.382554     -0.123021
Ti      13.51482     13.48712     11.12416         1.360260     -0.978525     -0.300413
Ti       1.96829      5.76790      2.35748        -0.495298     -0.487597     -1.812167
Ti       2.06758      5.77304     15.40450         0.298685     -0.308420      0.198993
Ti      13.50542      5.85043      2.33507         0.007641     -0.673368     -1.152768
Ti      13.65123      5.76218     15.41970        -0.022497     -0.633518      0.213486
Ti       1.98218      5.74208      6.72053        -0.140709      0.141627     -1.392644
Ti      13.44883      5.71677      6.69679         0.184197      0.597374     -1.378283
Ti       2.03585      5.70008     11.11228        -0.330279      0.376790     -1.112529
Ti      13.55188      5.71064     11.07182        -0.183581     -0.749140     -0.868648
Ti       2.06762      9.61280      2.39274        -0.930443     -0.241381     -0.413365
Ti       2.14975      9.62676     15.42225         0.153054     -0.691782     -1.478878
Ti      13.53135      9.66467      2.42376        -0.204922     -0.327145      0.850101
Ti      13.69961      9.52463     15.33190         0.043845      0.154436      2.680853
Ti       2.06397      9.55041      6.69464        -1.041174     -0.161276     -0.834801
Ti      13.43395      9.58961      6.71909         0.749608     -0.558146     -0.735369
Ti       2.10696      9.55250     11.09288        -0.050633     -0.256449     -1.032706
Ti      13.61305      9.51116     11.02768         0.816505      0.454044     -0.045634
Ti       5.80225      1.92503      2.37640        -1.073419      1.172710     -1.895431
Ti       5.91512      1.88918     15.44324        -0.701417      0.211590     -1.215378
Ti       5.72987     13.40593      2.38991         0.436875     -0.269774      0.890909
Ti       5.89405     13.50178     15.44160         0.703419     -0.819148     -0.583116
Ti       5.90892      1.95419      6.73532        -0.598206     -0.124489      0.656661
Ti       5.85125     13.36701      6.61917         0.840801      0.994906      1.829865
Ti       5.98790      1.88522     11.13131        -0.801830      0.028693     -0.406672
Ti       6.01990     13.47641     11.06284        -1.113646      0.109859     -0.726363
Ti       5.75024      5.73568      2.18549         0.070935      0.126084      0.679066
Ti       5.94730      5.76847     15.50253         0.291630     -0.401071     -0.583593
Ti       5.93754      5.72821      6.72559        -0.006676     -0.530163     -1.132533
Ti       5.96551      5.75473     11.11008        -0.310441     -0.084790     -0.072029
Ti       5.83805      9.54304      2.33309         0.301659      0.534174     -1.828318
Ti       5.94869      9.65340     15.45204        -0.325845      0.781996     -0.989997
Ti       5.83687      9.59667      6.68059         0.483655     -0.880267      0.698170
Ti       5.89653      9.60576     11.11424        -0.786925     -1.262097     -2.565824
Ti       9.57682      1.99516      2.32709         0.207560     -0.976989     -0.784561
Ti       9.77270      1.87780     15.48050         1.315507      0.215547     -1.984813
Ti       9.64068     13.44074      2.34679        -2.371014     -1.018877     -0.987533
Ti       9.77488     13.42667     15.37614         0.107427     -0.147066      0.325652
Ti       9.65339      1.88578      6.76437        -0.392262     -0.431543     -0.975330
Ti       9.67852     13.44850      6.68045        -1.299045      0.077622     -1.213964
Ti       9.74300      1.88848     10.96206         0.904743      0.521215      0.567770
Ti       9.81631     13.44127     11.07443        -0.235629      0.469482     -0.565172
Ti       9.61038      5.77231      2.21809        -0.648532      0.881921      0.619846
Ti       9.83897      5.71222     15.44999        -0.896430     -0.145354     -1.017839
Ti       9.70850      5.75375      6.75304        -0.944737      0.120892     -1.467264
Ti       9.77402      5.70434     11.05373         1.007656     -1.027019      0.050752
Ti       9.62606      9.62699      2.29894        -0.105283      0.402986     -1.057111
Ti       9.82136      9.56075     15.43619        -0.065160      0.411611     -0.648701
Ti       9.68209      9.60617      6.65657        -1.149119     -0.617356      0.573217
Ti       9.80345      9.52741     11.13235        -0.414003      0.698891     -1.647837
O       1.94507      1.76935      0.54073        -0.129669      0.472659      1.302037
O       1.99480      1.92162     13.69327         0.210688     -0.136932     -0.004928
O       1.92597     13.43653      0.68295        -0.457016     -0.080007      1.637378
O       2.11753     13.49100     13.61733        -0.007412     -0.278571      0.321895
O      13.43400      1.88174      0.46834        -0.167586      0.090707      2.128600
O      13.58983      1.83168     13.72975         0.216496      0.041293      0.445736
O      13.27818     13.36755      0.68272         0.748057      0.032840      0.620048
O      13.57280     13.32699     13.61193         0.216206      0.224720      1.464088
O       2.01414      2.08039      4.92862         0.136652     -0.543358      2.269395
O       2.00162     13.52590      4.89013         0.079691     -0.662731      1.242418
O      13.39196      1.91454      4.97640         0.342032     -0.065455      1.140287
O      13.50490     13.42255      4.87096        -0.389251      0.208770      0.783110
O       2.13514      1.94421      9.38960        -0.311306     -0.097812     -0.612254
O       2.02365     13.42622      9.38316        -0.045482     -0.276031      0.429434
O      13.64574      1.86779      9.31267         0.211804     -0.052457     -1.007931
O      13.64529     13.45987      9.33833        -0.301395      0.070384      0.178389
O       1.84608      5.67904      0.53207         0.174714      0.610085      0.883149
O       1.98406      5.75073     13.63026         0.152745      0.229171      0.508052
O      13.47598      5.84064      0.51253         0.006803     -0.028323      1.779911
O      13.68960      5.76704     13.67514        -0.087512      0.056443      0.122260
O       1.94559      5.71852      4.86502         0.258539      0.044443      2.202707
O      13.40475      5.76171      4.88365         0.288823     -0.262227      1.375741
O       1.95624      5.69732      9.28243         0.359291      0.020193      0.954223
O      13.63915      5.72802      9.27250        -0.242179      0.036172      0.732708
O       1.99156      9.70938      0.60828        -0.189198     -0.240975      0.672515
O       2.28074      9.47960     13.63221        -0.634860      0.414768      1.165747
O      13.43274      9.59240      0.71771         0.211337      0.161028     -1.082510
O      13.62721      9.56394     13.66851         0.133165      0.020570     -2.461468
O       2.10811      9.30553      4.88743        -0.014475      0.873828      1.598692
O      13.33354      9.56637      4.97238         0.161560      0.317376      0.064051
O       2.00408      9.56822      9.30696         0.347380      0.242110      0.779887
O      13.56136      9.53610      9.26990        -0.114940      0.372132     -0.050109
O       5.66621      1.96906      0.57028         0.342105     -0.187379      1.446390
O       5.99554      1.91868     13.61430         0.075455     -0.040843      1.254541
O       5.60715     13.47363      0.70387         0.583288      0.008978     -1.399661
O       5.97672     13.46870     13.67969         0.009551      0.223227     -0.071845
O       5.89007      2.00052      5.00112        -0.200801      0.127828     -0.726985
O       5.84101     13.31991      4.90343        -0.287530      0.545996     -0.721932
O       5.90271      1.92069      9.38374         0.072791      0.018746      0.210363
O       5.98839     13.36823      9.29189        -0.159513     -0.139017      0.713844
O       5.73777      5.73593      0.41833        -0.285382      0.194376      0.407121
O       6.05013      5.66138     13.72347        -0.012662      0.338720      0.130629
O       6.00304      5.68316      4.95278        -0.262473      0.325668      0.467113
O       5.76666      5.72600      9.35958         0.452479      0.233187      1.030187
O       5.81084      9.62397      0.50119        -0.253600     -0.152295      1.667073
O       5.97257      9.80063     13.66733        -0.039865     -0.842691      0.635970
O       5.90337      9.36387      4.93791        -0.364478      0.660762     -0.358613
O       5.78143      9.70186      9.21575         0.284267     -0.321543      2.009048
O       9.62349      2.04191      0.53511        -0.074562     -0.643753      1.126639
O       9.89660      1.93129     13.64217        -0.597506     -0.189406      1.826808
O       9.38243     13.48265      0.52736         1.030384      0.124390      1.369395
O       9.74470     13.43238     13.59877         0.028130      0.100260      0.647654
O       9.60680      1.89595      4.96399         0.268293      0.028556      0.543077
O       9.54927     13.37894      4.83764         0.296459      0.217587      1.838883
O       9.66059      1.92948      9.17693         0.433560     -0.147906      0.910339
O       9.86386     13.45408      9.30299        -0.157183     -0.183944      0.319970
O       9.61132      5.75008      0.47315         0.207560      0.094480      0.773712
O       9.72759      5.75171     13.64862         0.039863     -0.001944      1.317793
O       9.63531      5.84460      4.94441         0.115250     -0.426616      1.463397
O       9.68455      5.66170      9.29179         0.529802      0.103196     -0.106920
O       9.67825      9.62348      0.45328        -0.050284     -0.147532      1.138634
O       9.74299      9.68535     13.64169         0.162440     -0.455597      0.163429
O       9.59394      9.59490      4.90288         0.367892     -0.004795      0.399168
O       9.87776      9.64680      9.32308        -0.450775     -0.186761      2.104059
O       3.84434      2.06637      2.87193         0.532552     -0.983960     -0.594870
O       4.01108      1.93096     15.85201         0.213708     -0.151997     -0.374745
O       3.85277     13.47847      2.77703        -0.201017     -0.113548      0.694682
O       3.96430     13.52072     15.83918         0.446891     -0.342276     -0.428268
O      15.39347      1.84443      2.81011        -0.322279      0.308369     -0.476647
O      15.56010      1.77596     15.93553         0.039412      0.484572     -0.074371
O      15.34689     13.39229      2.89922         0.213205      0.388370     -0.636037
O      15.56694     13.43241     15.84532        -0.257776     -0.224782      0.063135
O       3.99861      1.91281      7.25407        -0.859875      0.341569     -0.810025
O       4.01885     13.40881      7.17087        -0.859778     -0.289014     -0.763998
O       0.13084      1.71566      7.05844        -0.192196      1.360440     -0.173810
O       0.10178     13.48665      7.02398        -0.481958     -0.686005     -0.064677
O       4.01320      1.90112     11.56156         0.327987      0.355084     -0.066450
O       4.02738     13.54451     11.47308         0.390622     -0.846427     -0.093772
O       0.18634      1.87274     11.55694         0.241556     -0.048207     -0.289086
O       0.25076     13.49623     11.68584        -0.960046     -0.294176     -0.803324
O       3.78521      5.75226      2.64470         1.880553     -0.201637      0.183168
O       4.02878      5.88158     15.76286         0.049053     -0.714262     -0.006048
O       0.06751      5.82064      2.74726        -1.139260     -0.312403      0.107413
O      15.55888      5.79778     15.85557         0.352050     -0.283333     -0.108461
O       4.08590      5.72946      7.14535        -2.537520     -0.040673     -0.418021
O       0.09809      5.75964      7.05037         0.383649      0.020578     -0.273999
O       3.85240      5.74676     11.63120         1.915239     -0.446044     -1.079025
O      15.47546      5.76443     11.58008         0.387912      0.214570     -0.981792
O       3.93952      9.56220      2.77248         0.016600     -0.030636      0.229606
O       4.03627      9.74459     15.94511         0.210365     -1.018101     -0.788183
O       0.16493      9.67538      2.90431        -1.327811     -0.249565     -0.446808
O       0.23491      9.65912     15.77937        -0.171519     -0.249470      0.153975
O       3.93559      9.59338      7.03098        -0.044767     -0.264431      0.132102
O      15.37410      9.67779      6.95093         0.244587     -0.261201      0.309194
O       3.99255      9.46623     11.51312         0.301962      0.855364     -0.390259
O      15.49960      9.49900     11.42666         0.136422      0.079387      0.098570
O       7.72767      1.97983      2.71019         0.057587     -0.107399     -0.271639
O       7.83608      1.92363     15.85506         0.957768     -0.157208     -0.419489
O       7.61882     13.32576      2.85969         0.614121      0.746107     -0.639350
O       7.87954     13.48598     15.88445         0.007678      0.297830     -0.481273
O       7.74740      1.91261      7.25558         0.552140     -0.012036     -0.522822
O       7.78841     13.41586      7.17042         0.036977     -0.358188     -0.359300
O       7.89004      1.91917     11.36751        -0.052557     -0.194612      0.468350
O       7.84617     13.51212     11.44186         0.475864     -0.186165      0.033791
O       7.62881      5.69428      2.70491         1.465650      0.347446     -0.700658
O       7.88892      5.69376     15.93211        -0.024401     -0.031862     -0.647189
O       7.79908      5.81343      7.22245         0.381683     -0.490053     -0.310902
O       8.01130      5.83604     11.49107        -3.099042     -0.095487     -0.197664
O       7.77272      9.67578      2.64968        -0.604943     -0.046337      0.212119
O       7.87117      9.61725     15.87468         0.474205      0.028611     -0.823691
O       7.71013      9.57957      7.17955         1.130284     -0.028983     -0.334284
O       7.83501      9.51694     11.46143         0.976936     -0.090246     -0.320133
O      11.54233      1.83193      2.77839        -0.538851      0.765433     -0.714191
O      11.77763      1.84547     15.91566        -0.868687      0.117404      0.050630
O      11.42188     13.42757      2.78324         2.512899      0.429637     -0.120024
O      11.75827     13.46521     15.93932        -0.673870     -0.461063     -0.427958
O      11.58924      1.96701      7.21034         0.868343     -0.470882     -0.658364
O      11.50635     13.58629      7.02846         2.205433     -0.609008     -0.200787
O      11.77818      1.95433     11.43412        -0.730720     -0.116229     -0.074097
O      11.70055     13.29944     11.55112         0.112350      0.729711     -0.466639
O      11.57518      5.86685      2.73876        -0.107804     -0.814873     -0.884208
O      11.68464      5.78869     15.79136         0.953275      0.120446      0.090551
O      11.55305      5.65740      7.17607         0.765333      0.359339     -0.390661
O      11.71018      5.67275     11.74928         0.104266     -0.007962     -1.539394
O      11.51263      9.66105      2.75830         0.837822     -0.352051     -0.142890
O      11.77287      9.48130     15.69256        -0.515439      0.270748      0.374565
O      11.48067      9.45987      7.25607         1.659252      0.816658     -0.851823
O      11.77489      9.54922     11.50216        -1.102972      0.961410     -0.098701
O       1.86101      3.79221      2.68179         0.042494      0.368203      0.207858
O       2.11603      3.84783     15.86772        -0.207050      0.053690     -0.376827
O       1.98215      0.01831      2.95228         0.017155     -0.197906     -0.727616
O       2.11306     15.35704     15.92351        -0.406226     -0.653298     -0.598730
O      13.56019      3.80372      2.71844        -0.690029      0.654270     -0.243437
O      13.67976      3.77210     15.90627         0.081624      1.006166     -0.408983
O      13.45154      0.05791      2.78461         0.093363     -1.056455     -0.309794
O      13.63066     15.25747     15.93208         0.319304      0.096773     -0.100089
O       1.98528      3.80538      7.23598         0.449048      0.494590     -0.971135
O       2.07985     15.30531      7.16591         0.111456      0.077624     -0.594400
O      13.61270      3.91660      7.20107        -0.300211     -1.621044     -0.700381
O      13.58713      0.00647      7.23398        -1.076133     -0.584429     -1.267836
O       2.07061      3.79169     11.59486        -0.185999      0.820303     -0.691393
O       2.09035      0.02898     11.64269         0.087236     -0.323309     -0.496938
O      13.69047      3.78522     11.45703        -0.167253      0.545773     -0.125519
O      13.60334     15.35452     11.51543         0.085081     -0.535687     -0.105612
O       2.00443      7.64720      2.78865        -0.190606      0.620896     -0.384042
O       2.18234      7.70060     15.86303        -0.421562      0.230190     -0.098950
O      13.58464      7.72213      2.82144        -0.476854     -0.001160     -0.663189
O      13.75265      7.62022     15.89580        -0.488254      1.046097     -0.439643
O       2.01708      7.67171      7.24750         0.173587     -0.756930     -0.936756
O      13.50420      7.67992      7.14973        -0.339729     -0.535572     -0.392496
O       2.16013      7.62861     11.54760        -0.909981     -0.024560     -0.476819
O      13.47399      7.57745     11.39938         0.630190      1.296392      0.153342
O       2.01465     11.48285      2.94103         0.117696      0.697870     -0.182025
O       2.08125     11.52801     15.82986        -0.027784      0.514860     -0.269802
O      13.47238     11.54154      2.89748        -0.117532      0.062326     -0.215426
O      13.61179     11.50289     15.84564         0.308529     -0.648884     -0.058275
O       2.04351     11.44666      7.12119        -0.144166      0.877253     -0.425246
O      13.39490     11.57082      7.09279         0.138944      0.021277     -0.177967
O       2.07512     11.49729     11.56457         0.005466     -0.411621     -0.719959
O      13.75297     11.59326     11.44212        -0.408994     -1.581655     -0.114935
O       5.78833      3.90598      2.77440        -0.244185     -0.602037     -0.348093
O       5.94175      3.80969     15.97262        -0.103077      0.209875     -0.994437
O       5.76928      0.11388      2.80562         0.077781     -1.088700     -0.172244
O       5.99652      0.03590     15.91296        -0.196307     -0.230862     -0.233749
O       5.93309      3.85405      7.23362        -0.200682     -0.141734     -0.389545
O       5.96352      0.01385      7.09210        -0.568257     -0.568476     -0.275407
O       5.95164      3.88593     11.61880         0.242544      0.285129     -0.750396
O       5.92250     15.34651     11.46634         0.343860     -0.059767      0.024771
O       5.83570      7.67467      2.71263        -0.087930     -0.478019     -0.160227
O       5.98988      7.73835     15.75142        -0.181498     -0.459777      0.020115
O       5.91039      7.62204      7.10191        -0.356299      0.670443      0.130265
O       5.86123      7.67542     11.57282         0.494903     -1.041529     -0.287201
O       5.74610     11.48417      2.96448        -0.021910     -0.404617     -1.000592
O       5.98779     11.61084     15.79620        -0.138223     -0.284812      0.253442
O       5.90003     11.47041      6.99960        -0.216119      0.385225      0.019320
O       5.95310     11.39307     11.53618         0.029314      1.934436     -0.842608
O       9.70969      3.84533      2.81265        -0.229112      0.284148     -1.119098
O       9.88417      3.77158     15.88681        -0.295155      0.463242     -0.446516
O       9.55009     15.31690      2.80728         0.201590      1.253966     -0.836225
O       9.85204     15.33502     15.75471        -0.399407      0.351812      0.447925
O       9.59847      3.76432      7.15827         0.486490      1.218479     -0.475485
O       9.68066     15.33698      7.13252        -0.258790      0.257734     -0.149965
O       9.73278      3.82058     11.57342         0.351329     -0.463824     -0.668400
O       9.89077      0.03933     11.50923        -0.420889     -0.320892     -0.380901
O       9.59702      7.67434      2.77290        -0.103942     -0.141881     -1.013144
O       9.67943      7.67287     15.84264         0.891737      0.142505     -0.561836
O       9.67259      7.67937      7.26666        -0.050739     -0.417252     -0.720024
O       9.97669      7.60309     11.38996        -0.638435      1.655762     -0.005710
O       9.74868     11.57423      2.78076        -0.749463     -1.053240     -0.312884
O       9.77491     11.56141     15.86810         0.771041     -0.956239     -0.749779
O       9.74465     11.46074      7.14030         0.004421      0.587511     -0.329269
O       9.72542     11.62907     11.49700         0.271326     -2.321712     -0.286618
