  # total energy = -7883.42480575 
CRSYTAL
PRIMVEC
    15.3600000000000000    0.0000000000000000    0.0000000000000000
     0.0000000000000000   15.3600000000000000    0.0000000000000000
     0.2400000000000000    0.0000000000000000    17.440000000000000
PRESSURE
0.933565 0.854981 5.27708 -0.244567 -0.936607 -0.014564
PRIMCOORD
320 1
Pb       3.91243      3.84163      4.30808        -0.457262      0.634612     -0.413531
Pb       4.08196      3.81738     17.38397        -0.214555     -0.016463      0.412768
Pb       3.94288     15.30002      4.33000        -0.784378     -0.069648      0.437948
Pb       4.03942     15.35276     17.42129        -0.298379     -0.295633     -0.331189
Pb      15.37875      3.81629      4.28072         0.162826      0.229474     -0.020476
Pb       0.25877      3.82388     17.42318        -0.423219     -0.110229     -0.141667
Pb      15.38754      0.02184      4.34100        -0.044584     -0.498267      0.163310
Pb      15.52419     15.32790     17.43819        -0.205278     -0.246388     -0.330904
Pb       3.99875      3.75565      8.64004        -0.033594      0.367138      0.406095
Pb       3.91504     15.35302      8.77707         0.076788     -0.196767     -0.637086
Pb      15.42948      3.83107      8.62991         0.058040     -0.101219      0.046742
Pb      15.46564     15.34808      8.68758        -0.101278     -0.247869     -0.306281
Pb       3.95601      3.80523     13.03551         0.181847     -0.075610     -0.451960
Pb       4.02846     15.34452     13.07183        -0.043846      0.354860     -0.767173
Pb      15.53878      3.82633     13.05258        -0.196459     -0.096445     -0.661865
Pb       0.18492      0.05515     13.02531        -0.086825     -0.224080     -0.551055
Pb       3.83782      7.66996      4.30650         0.425686     -0.387019      0.016828
Pb       4.03079      7.65590     17.36752        -0.110640     -0.172377     -0.245807
Pb      15.38839      7.66319      4.30562        -0.250570      0.045882      0.000281
Pb      15.57467      7.70607     17.38050        -0.455047      0.221971     -0.119371
Pb       3.90892      7.67052      8.69887         0.434799     -0.060420     -0.575652
Pb      15.45215      7.67891      8.69587        -0.412699      0.060330      0.047783
Pb       4.01387      7.70416     12.93634        -0.262214      0.426323      0.928895
Pb      15.43764      7.65968     13.07342         0.444734      0.295319     -0.645301
Pb       3.84421     11.50654      4.31903        -0.208972     -0.383485      0.556380
Pb       3.85604     11.51885      0.04152        -0.690941      0.157641     -0.583766
Pb       0.10676     11.52677      4.28793        -0.275775     -0.242851      0.737162
Pb       0.25084     11.46867     17.38950        -0.534370      0.278897      0.136462
Pb       3.89900     11.51397      8.72495         0.256723     -0.083834     -0.821203
Pb      15.46475     11.46031      8.66973        -0.578181      0.088001     -0.511673
Pb       3.98712     11.49735     13.05685         0.155614     -0.511700      0.009026
Pb       0.20892     11.51752     13.01502        -0.323282     -0.219733     -0.231931
Pb       7.69768      3.81568      4.28011         0.287980      0.150461     -0.390257
Pb       7.94949      3.88275     17.42536        -0.138845      0.022416     -0.558391
Pb       7.71509      0.02705      4.30754         0.076202     -0.185894      0.156681
Pb       7.87405     15.29947     17.33694         0.168474      0.185649      0.161595
Pb       7.77134      3.81749      8.66875        -0.229773      0.269807     -0.228326
Pb       7.81996      0.00601      8.69138        -0.249762     -0.040216     -0.404150
Pb       7.84614      3.73853     13.07141        -0.180536      0.362563     -0.485807
Pb       7.82041     15.33428     13.05726        -0.039329     -0.087701     -0.468218
Pb       7.71944      7.70984      4.27467        -0.049251     -0.336058      0.032994
Pb       7.87953      7.64584     17.43373        -0.042316     -0.092567     -0.660187
Pb       7.82464      7.65742      8.72770        -0.775586      0.157500     -0.833613
Pb       7.84333      7.63506     13.05849         0.190178      0.380393     -0.454062
Pb       7.66748     11.50560      4.30171         0.159612     -0.276414     -0.313802
Pb       7.87300     11.47356     17.41288         0.184804     -0.072284     -0.593155
Pb       7.79921     11.53756      8.73020        -0.233235     -0.694334     -0.784740
Pb       7.84432     11.48979     13.03732         0.174420     -0.398047     -0.015138
Pb      11.56233      3.82114      4.26570        -0.315933      0.060615      0.393392
Pb      11.74524      3.83994     17.39914         0.055044     -0.341628     -0.452622
Pb      11.55954     15.34371      4.34649        -0.076941     -0.335685     -0.621323
Pb      11.78532     15.27128     17.32561        -0.442812      0.315653      0.523707
Pb      11.59586      3.80993      8.67435        -0.149779      0.145682     -0.915810
Pb      11.57828     15.32508      8.72071        -0.143997      0.079358     -0.509224
Pb      11.69987      3.86741     13.08428         0.018578     -0.343184     -0.674817
Pb      11.69676     15.35045     13.04600         0.203710     -0.330871     -0.476353
Pb      11.56343      7.66881      4.38786        -0.112886     -0.043409     -0.705362
Pb      11.76976      7.66127     17.40343         0.350663      0.472364     -0.456646
Pb      11.59045      7.63605      8.63168         0.471614      0.171174     -0.205008
Pb      11.67630      7.61321     13.09033        -0.386932      0.453519     -0.891937
Pb      11.53690     11.50209      4.29330        -0.025865      0.448664     -0.305176
Pb      11.72863     11.46191     17.40940         0.586272      0.048312     -0.216877
Pb      11.63226     11.51578      8.64992         0.171076     -0.667109      0.150235
Pb      11.69476     11.54789     13.02129        -0.070017     -0.038641     -0.185761
Ti       1.89380      1.89935      2.34175         0.496752      0.182327      0.893749
Ti       2.08673      1.88324     15.45401        -0.722996     -0.415477      0.262645
Ti       1.91710     13.41491      2.33095        -0.404805     -0.078726      2.190261
Ti       2.05431     13.42335     15.38279        -0.226150     -0.340250      1.625432
Ti      13.45549      1.91841      2.33300        -0.594014     -0.657990      0.146792
Ti      13.60621      1.90913     15.37956         0.004915     -0.252580      2.809687
Ti      13.50904     13.44136      2.36852        -1.115046     -0.475521     -0.021671
Ti      13.54826     13.42766     15.35999         0.864938     -0.801731      0.468031
Ti       2.04682      1.89480      6.59832        -0.561861     -0.260585      1.650874
Ti       1.97386     13.40196      6.69439        -0.191432      0.007910      0.706362
Ti      13.52536      1.86932      6.65695        -0.286255      0.342415      1.024497
Ti      13.39088     13.45043      6.67071         2.012479     -1.112579      0.814276
Ti       2.05537      1.96633     11.02518         0.473797     -0.430969      2.109349
Ti       2.15796     13.37395     11.03196        -0.753479      0.745020      0.357152
Ti      13.52155      1.84895     10.93236         0.972159      0.183873      2.519200
Ti      13.65700     13.35899     11.01836        -0.394662      0.408371      2.314991
Ti       1.88485      5.78021      2.31362         0.890959     -0.695669      2.285665
Ti       2.06666      5.73626     15.38791         0.820370      0.347755      0.261468
Ti      13.39845      5.74247      2.28314         0.917784      0.874969      1.154163
Ti      13.63066      5.74247     15.34665        -0.174552     -0.040428      1.635767
Ti       2.03124      5.69046      6.70870        -0.121458      0.666739     -0.322171
Ti      13.56412      5.77480      6.61851        -0.714992     -0.396029      2.477855
Ti       2.07403      5.82224     11.01721        -0.586411     -0.687976      0.996484
Ti      13.54130      5.71941     11.01230         0.222471      0.122023      1.903540
Ti       1.96810      9.52582      2.34769        -0.718862      0.598630      1.447741
Ti       2.13890      9.63878     15.38118        -0.618594     -0.272535      0.488573
Ti      13.48744      9.67278      2.42910         0.208642     -1.204920     -1.232078
Ti      13.70478      9.67118     15.32596        -0.963098     -0.570799      3.514759
Ti       1.95944      9.51797      6.67073         0.597574      0.200472      1.535662
Ti      13.53988      9.58427      6.58032         0.280058      0.446093      1.667555
Ti       2.02659      9.60511     10.93080        -0.485048     -0.516172      2.312443
Ti      13.50691      9.55360     11.08249         0.487184      0.066549     -1.489545
Ti       5.71220      1.88161      2.32210         0.831306      0.885971     -0.419289
Ti       5.92816      1.89250     15.43801         0.430301     -0.016305      0.183642
Ti       5.69983     13.45864      2.36125         0.983003     -0.903018      3.157499
Ti       5.91335     13.38599     15.33101        -0.497170      0.635782      1.322671
Ti       5.83505      1.83511      6.68221         0.463936      0.053715      2.996156
Ti       5.84453     13.35294      6.63670        -0.687463      0.525165      1.909864
Ti       5.99943      1.94512     10.93805        -1.856561     -0.270277      2.291651
Ti       5.91696     13.39322     10.96282         0.009930      0.254920      0.874616
Ti       5.78564      5.76007      2.24594        -0.403469      0.508438      2.499860
Ti       5.87360      5.72715     15.36921         0.759129      0.446951      1.394576
Ti       5.76553      5.76419      6.63638         0.722903      0.317454      2.287632
Ti       5.85659      5.78403     11.07652         0.724041     -0.656171     -1.692368
Ti       5.79407      9.61788      2.21722         0.100980     -1.134672      1.348081
Ti       5.92838      9.60231     15.48004         0.325487     -0.597873     -0.088526
Ti       5.81080      9.59296      6.62340         0.274769     -0.903800      2.384184
Ti       5.89933      9.60963     10.95642         0.236763     -0.146673      0.683484
Ti       9.63519      1.89907      2.25509         0.027654      0.082143      2.448933
Ti       9.77582      1.87689     15.39480         0.503172      0.174528      0.711314
Ti       9.51852     13.45951      2.25191         1.087510     -0.295534      1.183925
Ti       9.74194     13.36608     15.41297         0.421852      0.399613      2.263129
Ti       9.65145      1.85107      6.63530         0.208967      0.339128      3.911252
Ti       9.56518     13.36968      6.54840         0.838979      0.227168      2.188775
Ti       9.75688      1.86070     11.00555         0.394336      0.306570      0.633574
Ti       9.72541     13.42816     10.97142         0.634286     -0.379233      1.614088
Ti       9.65183      5.76598      2.20136        -0.694159     -0.361864      2.118832
Ti       9.81589      5.77573     15.36016        -0.386718     -0.598242      1.832679
Ti       9.63025      5.74158      6.69171         0.508292     -0.155304      1.169517
Ti       9.69173      5.71813     10.99444         0.319916      0.373880      2.734254
Ti       9.64386      9.59018      2.19437         0.074072     -0.336710      2.395189
Ti       9.83367      9.56189     15.36719         0.074893      0.373611      1.019574
Ti       9.71177      9.61141      6.66760        -1.075618     -0.367804      2.238516
Ti       9.67789      9.62176     10.95373         0.838387     -0.593950      1.932438
O       1.96738      1.97292      0.62492        -0.261224     -0.278088     -1.191739
O       2.04155      1.87440     13.70113         0.131320     -0.015248     -0.239566
O       1.86162     13.37006      0.64416         0.222513      0.109999     -1.707096
O       2.08363     13.42722     13.67613         0.057247     -0.061249     -1.752190
O      13.38096      1.84942      0.61375         0.069608      0.196609     -0.653477
O      13.55385      1.95922     13.72095         0.174632     -0.189119     -3.168358
O      13.60235     13.28677      0.63413        -0.563377      0.345720     -0.424133
O      13.52221     13.35159     13.61873         0.223861      0.258036     -0.402097
O       1.87731      1.99464      4.87850         0.255011     -0.335263     -0.695929
O       2.00730     13.43657      4.96419        -0.104373     -0.159105     -0.605885
O      13.58956      1.84073      4.91758        -0.159482      0.157345     -0.522134
O      13.45331     13.47827      4.95935        -0.349466     -0.058067     -1.622196
O       2.18361      1.85874      9.35456        -0.342320      0.093174     -1.861739
O       2.32053     13.33926      9.27197        -0.646601      0.299414      0.146242
O      13.59818      1.74427      9.24660        -0.299231      0.341451     -2.344232
O      13.72232     13.44927      9.33659        -0.535682     -0.176457     -2.035679
O       1.88877      5.71546      0.63664         0.071770      0.103967     -2.803796
O       2.18496      5.74304     13.65524        -0.418120     -0.227455      0.055100
O      13.43959      5.77887      0.55076        -0.173089     -0.041787     -0.251712
O      13.52733      5.64884     13.61196         0.201023      0.291004     -0.565544
O       2.14910      5.76438      4.93925        -0.698153     -0.380531      0.227460
O      13.63530      5.74316      4.93458        -0.280713      0.071359     -1.870309
O       2.07029      5.78640      9.28983         0.046941     -0.197582     -0.314331
O      13.48562      5.80082      9.31773         0.012030     -0.325056     -1.285921
O       1.82109      9.58362      0.66163         0.319076     -0.160176     -2.030917
O       2.12133      9.67699     13.68253        -0.088136      0.059973     -1.800062
O      13.52318      9.58586      0.61640        -0.313343      0.212176      0.797699
O      13.68389      9.51222     13.67314        -0.313895      0.117724     -3.392444
O       1.92055      9.68406      4.97567        -0.013734     -0.515238     -1.890942
O      13.61870      9.55093      4.85181        -0.401487      0.013189     -0.739756
O       2.09417      9.51943      9.22087        -0.220465      0.151919     -0.827552
O      13.59771      9.53268      9.30753        -0.285525      0.137535     -0.030341
O       5.81006      1.98517      0.56867        -0.280773     -0.605551      0.054469
O       5.94986      1.84818     13.69050         0.078513     -0.095180     -0.078122
O       5.50726     13.48666      0.72247         0.166113     -0.014803     -3.327504
O       5.79858     13.48128     13.61612         0.423096     -0.115459     -0.816044
O       5.89881      1.95261      5.02385        -0.046761     -0.021817     -3.449462
O       5.80040     13.32910      4.93737         0.031801     -0.014048     -2.061352
O       5.91216      1.83358      9.25397        -0.064819      0.098809     -2.077440
O       5.80211     13.41157      9.22586         0.183087     -0.251155     -0.176231
O       5.81270      5.76210      0.57058        -0.258627     -0.071460     -2.772849
O       5.80697      5.80305     13.66070         0.287940     -0.181072     -1.277382
O       5.77545      5.83813      4.92306         0.112107     -0.257814     -1.298541
O       5.90341      5.71018      9.27436        -0.363275      0.174178      1.320800
O       5.74778      9.67784      0.47199         0.012423     -0.292593     -0.665033
O       5.98073      9.58525     13.75562        -0.078400      0.189097     -0.539608
O       5.80608      9.49896      4.92259         0.336938      0.090108     -2.062083
O       5.81834      9.59242      9.23420         0.285649      0.068468     -0.721867
O       9.71652      1.94352      0.56771        -0.485768      0.119678     -1.535836
O       9.76459      1.79339     13.64518        -0.112997      0.171181     -0.632103
O       9.51689     13.58251      0.52418        -0.258569     -0.651589     -0.638659
O       9.82509     13.53540     13.75757        -0.019059      0.305255     -3.127872
O       9.53082      1.90413      4.99005         0.050464      0.062749     -3.272795
O       9.67751     13.40253      4.82255        -0.182143     -0.225327     -0.288842
O       9.68758      1.64612      9.29055         0.258794      0.722852     -0.606712
O       9.70492     13.46837      9.26150        -0.040548     -0.392940     -0.734757
O       9.65890      5.65476      0.48073        -0.105352      0.201418     -0.825814
O       9.82058      5.72216     13.64292        -0.014602      0.080890     -1.046919
O       9.60313      5.80340      4.99533        -0.054355     -0.298827     -1.529741
O       9.68485      5.71892      9.31021         0.171596      0.154912     -2.110645
O       9.61766      9.49502      0.49405        -0.135280      0.294052     -1.504592
O       9.72748      9.59904     13.65655         0.241025     -0.432639     -0.786582
O       9.54281      9.66418      4.99970         0.265458     -0.161607     -2.620949
O       9.59014      9.66189      9.23499         0.258843     -0.153317     -1.091334
O       3.84835      1.77122      2.70139         0.570554      0.322633      0.226808
O       3.98557      1.82091     15.81380         0.611308      0.232771      0.063062
O       3.83954     13.35690      2.90788         0.090223      0.288549     -0.672782
O       3.96245     13.48698     15.77330         0.767353     -0.243206      0.374391
O      15.35699      1.87209      2.64222         0.281666      0.184062      0.402577
O      15.49102      1.77310     15.87481         0.984984      0.480561     -0.015778
O      15.37314     13.38942      2.80643         0.798761      0.284723      0.011500
O      15.46192     13.32667     15.83732         0.464364      0.526745     -0.269107
O       3.93601      1.76215      7.06878        -0.085206      0.273669     -0.159030
O       3.97044     13.34604      7.02884        -0.731743      0.433505      0.317047
O      15.44873      1.94455      7.15265        -0.024975     -0.090401     -0.326342
O      15.44490     13.45592      7.09820         0.558255     -0.169983      0.227498
O       4.04293      1.92995     11.41464        -0.479961     -0.295150      0.408518
O       4.04284     13.23855     11.49254        -0.102940      0.882542     -0.221620
O      15.48771      1.91910     11.42392         0.630536      0.057145      0.211080
O       0.19189     13.32591     11.41851         0.443882      0.231272      0.139807
O       3.83830      5.82615      2.75968         0.347472     -0.286025     -0.261077
O       4.02592      5.65898     15.93924        -0.642997      0.518451     -0.253585
O      15.37516      5.73204      2.66659        -0.603351     -0.159213      0.333261
O      15.55292      5.70247     15.87721        -0.023884      0.382885     -0.512109
O       3.88358      5.72154      7.06147         0.627641      0.003719      0.365846
O      15.45587      5.65357      7.16812        -0.247619     -0.006592     -0.391126
O       3.97959      5.86106     11.55820         0.136486     -0.586889     -0.695153
O       0.17594      5.65847     11.45388        -0.564608      0.381890      0.068072
O       3.88361      9.55637      2.72642         0.345722      0.254960     -0.391443
O       3.96449      9.66386     15.75238         1.541439     -0.213349      0.916842
O      15.37633      9.52614      2.74552         0.451370      0.451575      0.315324
O      15.55038      9.63307     15.69908         0.278121     -0.190987      0.674115
O       3.87676      9.36783      6.97967         0.145549      0.814193      0.261484
O      15.41843      9.50974      7.16478         0.265281      0.044210     -0.212111
O       4.03191      9.57323     11.39361        -0.758900      0.161892      0.022932
O      15.46745      9.62550     11.39545         1.415147     -0.113736      0.339089
O       7.72742      1.86704      2.81648        -0.763525      0.357719     -0.541357
O       7.88571      1.95018     15.75802        -0.626758     -0.280033      0.336918
O       7.65532     13.37271      2.78116         0.266283      0.536419     -0.387747
O       7.81805     13.39020     15.72839        -0.573021      0.408155      0.490991
O       7.78515      1.91734      7.20485        -0.178929     -0.201067     -0.315698
O       7.74332     13.31446      7.00031         0.934699      0.008261      0.099324
O       7.83723      1.92461     11.42837         0.719195      0.158536      0.405645
O       7.81349     13.33163     11.45598         0.573350      0.572887     -0.195161
O       7.73307      5.66731      2.56762         0.112015      0.303595      0.376780
O       7.88584      5.77472     15.79208        -0.046322      0.088908      0.010354
O       7.75736      5.73728      7.18641        -0.134472     -0.236375     -0.421813
O       7.79919      5.65034     11.46903         0.215669      0.070496      0.378919
O       7.79736      9.37512      2.69882        -0.916643      1.034369     -0.500148
O       7.88522      9.57703     15.78184        -0.402496     -0.232483      0.742567
O       7.72953      9.55566      7.06340         0.244056     -0.115952      0.300600
O       7.84268      9.71963     11.48226        -0.022306     -0.729827     -0.138901
O      11.54615      1.93633      2.77188        -0.132936     -0.286125      0.197779
O      11.72230      1.95850     15.78630        -0.674581     -0.318987      0.197682
O      11.51865     13.40815      2.70769        -0.184791     -0.147291      0.085652
O      11.65820     13.41341     15.83434         0.057290     -0.229602      0.273133
O      11.56963      1.77799      7.05573         0.777558      0.312098      0.112699
O      11.61115     13.26942      7.19034        -1.061918      0.764568     -0.626192
O      11.69054      1.84930     11.37038        -0.706718     -0.259348      0.220871
O      11.73296     13.39080     11.49227        -0.959447      0.451141     -0.406806
O      11.51925      5.72065      2.81348         0.704605     -0.140108     -0.297854
O      11.74881      5.70236     15.86733         0.296271      0.030040     -0.466073
O      11.60343      5.73995      7.04670         0.057491      0.079067      0.322025
O      11.62971      5.90068     11.44274         0.566277     -0.593561      0.076340
O      11.55488      9.64387      2.81876        -0.374390     -0.330242     -0.192917
O      11.76483      9.64931     15.91322        -0.869266     -0.326098     -0.418124
O      11.64340      9.65008      7.00596         0.080140     -0.149679      0.067935
O      11.64782      9.49815     11.38553        -0.665411      0.013040      0.393203
O       2.00370      3.82510      2.79619        -0.205874     -0.396738     -0.162541
O       2.07700      3.79959     15.84943         0.066357     -0.279723     -0.088767
O       1.93052     15.30637      2.83592         0.124196      0.230424     -0.496807
O       2.02910     15.28546     15.92306         0.208401      0.705763     -0.119379
O      13.48111      3.83795      2.77110        -0.101123     -0.057743     -0.220317
O      13.70820      3.78334     15.81598        -0.120930      0.989778      0.115110
O      13.46131     15.29998      2.72624         0.019796      0.986835      0.301792
O      13.54580     15.29277     15.77407         0.332337      0.285124      0.056275
O       2.10019      3.76825      7.19790        -0.410389     -0.193454     -0.425100
O       1.97238      0.02721      7.18330         0.382173     -0.484028     -0.469188
O      13.41834      3.83338      7.02102         0.452528     -0.659340      0.403501
O      13.55828     15.27625      7.00029        -0.183880      1.404963      0.610493
O       2.09843      3.87577     11.51506         0.220658     -0.401403     -0.206037
O       2.10725     15.29339     11.47175         0.097021      0.050995     -0.056894
O      13.55859      3.74597     11.48199        -0.232509      1.107327     -0.347966
O      13.67361     15.34844     11.45947        -0.210511     -0.430963      0.181996
O       1.86396      7.65036      2.77714         0.498034      0.389302     -0.117933
O       2.15766      7.67586     15.69300        -0.208295     -0.552698      0.778495
O      13.48168      7.68238      2.80076        -0.446011     -0.772514     -0.037845
O      13.60160      7.70378     15.75330         0.351187     -0.950109      0.073701
O       1.96299      7.57958      7.17228        -0.165978      0.143786     -0.361921
O      13.53549      7.67700      7.08140        -0.123059     -0.365055     -0.199207
O       2.02382      7.69651     11.53144         0.021522      0.308685     -0.457795
O      13.66779      7.68446     11.46213        -0.049529     -1.397070      0.568541
O       1.93223     11.46561      2.79727         0.287434      0.340627     -0.235827
O       2.07950     11.51599     15.82163         0.319734      0.416701      0.261845
O      13.48852     11.52379      2.84288        -0.056558     -0.058769      0.005297
O      13.48802     11.51512     15.80918         0.623603      0.178826     -0.024562
O       1.97975     11.43342      7.09770         0.272317      0.518633      0.199459
O      13.65829     11.49812      7.03716        -0.390234     -0.340037      0.262541
O       2.08045     11.47523     11.43345         0.258199     -0.113184      0.002502
O      13.55645     11.43117     11.47089         0.072150      0.948384      0.168968
O       5.69301      3.85965      2.56772         0.171124     -1.364343      0.934682
O       5.91832      3.85914     15.75464         0.195472     -1.248485      0.204901
O       5.79485     15.29491      2.87485        -0.053768      0.986247     -0.529242
O       5.94953     15.30014     15.94627        -0.036549      0.403781     -0.616052
O       5.74546      3.79742      7.10195         0.625677      0.111426     -0.192882
O       6.03425     15.29561      7.03691        -0.718116      0.006464     -0.027543
O       5.87040      3.82296     11.39674         0.132144      0.281055      0.485582
O       5.95261     15.35582     11.37693        -0.112625     -0.736620      0.271195
O       5.80175      7.67041      2.57010         0.092190      0.378477      0.323052
O       5.87264      7.62774     15.84811         0.091072      0.719566      0.247646
O       5.80528      7.61871      7.16450         0.358459     -0.131145     -0.218740
O       6.01432      7.69947     11.39429        -0.005535     -0.193967      0.317388
O       5.92447     11.46099      2.57668        -0.488820      0.049469      0.505280
O       5.86423     11.55335     15.93206         0.452195     -0.140344     -0.297912
O       5.85666     11.44814      7.01357        -0.260312      0.128946      0.312741
O       6.02359     11.44928     11.43726        -0.798023      1.045388     -0.008012
O       9.63637      3.81710      2.81458         0.021441     -0.092214     -0.423073
O       9.79462      3.83878     15.79197         0.044932     -0.239504     -0.010630
O       9.61096     15.33730      2.74819        -0.000708      0.349578     -0.086149
O       9.76961     15.34448     15.94719        -0.040697      0.558480     -0.579636
O       9.68841      3.75586      7.19208         0.264130      0.506599     -0.251855
O       9.72695     15.26267      7.11154        -0.440980     -0.493786     -0.554657
O       9.92011      3.81987     11.35558        -0.644826     -0.394273      0.308885
O       9.75489     15.33516     11.34881        -0.179309     -0.733706      0.839138
O       9.73594      7.60700      2.64456        -0.016345      0.355039      0.138427
O       9.91947      7.66863     15.79083        -0.358974     -0.387365     -0.017817
O       9.73105      7.68207      7.06579        -0.109189     -0.202410      0.304527
O       9.65591      7.69080     11.45436        -0.157209     -0.241911     -0.109257
O       9.54878     11.46121      2.54746         0.025178      0.408682      0.214623
O       9.63233     11.50086     15.60413         0.696960     -0.405669      1.141332
O       9.65535     11.47306      7.18123         0.151525      0.912736     -0.353664
O       9.83180     11.49159     11.48212        -0.283811      0.726282     -0.255598
