  # total energy = -7879.22976232 
CRSYTAL
PRIMVEC
    15.3600000000000000    0.0000000000000000    0.0000000000000000
     0.0000000000000000   15.3600000000000000    0.0000000000000000
     0.2400000000000000    0.0000000000000000    17.440000000000000
PRESSURE
2.27305 2.41139 4.42104 -0.124648 -0.879478 0.008573
PRIMCOORD
320 1
Pb       3.97007      3.93737      4.27856        -0.469283     -0.066529     -0.143173
Pb       4.09996      3.78985     17.36028        -0.253142      0.478520      0.539660
Pb       4.03468     15.24277      4.43242        -0.312424     -0.159004     -0.344077
Pb       3.69830     15.35432      0.05159         0.098753     -0.246014     -0.521126
Pb      15.31915      3.81065      4.20889         0.429727      0.172895      0.029812
Pb       0.09469      3.83613      0.05442        -0.567872     -0.374956     -0.187907
Pb      15.34383      0.14235      4.42780         0.433247     -0.298031     -0.242130
Pb      15.09181     15.24532      0.08879         1.179847      0.139555     -0.597581
Pb       4.13578      3.62835      8.56357        -0.619238      0.580870      0.582503
Pb       3.83340     15.35050      8.94228         1.017671     -0.419558     -1.296763
Pb      15.38088      3.81922      8.53610         0.539769      0.316440      0.286674
Pb      15.45804     15.33965      8.67594         0.048761     -0.181384     -0.244749
Pb       3.90566      3.81894     13.05546         0.264643     -0.890412     -0.273387
Pb       4.13187      0.01381     13.12737        -0.478122      0.151352     -0.299639
Pb       0.20208      3.84269     13.03837        -0.472783     -0.025973     -0.084745
Pb       0.26924      0.23542     12.97961        -0.877117     -0.731892      1.044630
Pb       3.77867      7.67764      4.27903         0.712643     -0.322885     -0.205655
Pb       3.88906      7.64610     17.30189         0.730863     -0.079570      0.343527
Pb      15.36413      7.65733      4.32258        -0.060152     -0.261841     -0.622988
Pb      15.54012      7.84426     17.31643        -0.111748     -0.548302      0.118901
Pb       3.85949      7.66136      8.71267         0.343126      0.505212     -0.697518
Pb      15.36686      7.69643      8.72757         0.375339     -0.399461     -0.235001
Pb       4.06185      7.82558     12.77246        -0.476768     -0.519327      1.225490
Pb      15.27221      7.67373     13.12747         0.743861     -0.344687     -0.558471
Pb       3.76459     11.46732      4.37952         0.847475      0.174544     -0.220037
Pb       3.89005     11.62627      0.22706        -0.469686     -0.044872     -0.507429
Pb       0.24340     11.57847      4.35882        -0.515790      0.027293     -0.187022
Pb       0.27755     11.41680     17.41583        -0.188453      0.519811     -0.379502
Pb       3.83083     11.53907      8.74947         0.629691     -0.523340     -0.464997
Pb      15.41560     11.36780      8.62200         0.247132      0.084264     -0.117553
Pb       4.00628     11.45434     13.09140        -0.013357      0.475340     -0.702258
Pb       0.33123     11.54006     12.93119        -0.434309      0.020419      0.554660
Pb       7.66201      3.84578      4.16204         0.329630     -0.287121      0.207516
Pb       8.05662      4.01618     17.43401        -0.429950     -0.921416      0.080288
Pb       7.72501      0.16902      4.28278         0.168137     -0.942286     -0.046815
Pb       7.77863     15.21981     17.26216         0.893275      0.652096      0.308189
Pb       7.71893      3.84243      8.63446         0.737631     -0.408617      0.274925
Pb       7.88638      0.01157      8.67440        -0.383686      0.321494      0.147859
Pb       7.85213      3.52694     13.11756         0.001091      1.051143      0.497871
Pb       7.78457     15.29232     13.04215         0.690182      0.022152      0.633445
Pb       7.72161      7.81919      4.13766        -1.023609     -0.432095      1.108963
Pb       7.81678      7.59608     17.43775         0.056875     -0.014142     -0.317818
Pb       7.87986      7.65469      8.79691        -0.348194     -0.289861     -0.496446
Pb       7.83269      7.60096     13.08563         0.341042     -0.174959     -0.219893
Pb       7.55873     11.49242      4.20678         0.301035      0.010508      0.715679
Pb       7.82010     11.42379     17.40262         0.217219      0.451653      0.341906
Pb       7.82926     11.59905      8.77314        -0.106394     -0.642014     -0.369376
Pb       7.85025     11.43203     13.02133         0.230338     -0.058655      0.154903
Pb      11.53333      3.84247      4.20411         0.035367     -0.385566      0.314144
Pb      11.75092      3.84190     17.37703         0.214562     -0.428483     -0.060619
Pb      11.52061     15.32215      4.36807        -0.211044      0.335638     -0.411376
Pb      11.81102     15.13352     17.22861        -0.855130      0.814753      0.300046
Pb      11.54114      3.79402      8.60946        -0.379259      0.113518     -0.102150
Pb      11.48605     15.23637      8.74635        -0.041977      0.265209     -0.163335
Pb      11.74579      3.95131     13.13931         0.052448     -0.821492     -0.106910
Pb      11.74023     15.34409     13.03916        -0.035635      0.442147      0.057208
Pb      11.51992      7.69754      4.48954         0.404505      0.037276     -0.784060
Pb      11.87108      7.69137     17.36422        -0.361891      0.132912      0.207174
Pb      11.57254      7.60573      8.50969        -0.181920     -0.594738      1.314424
Pb      11.60856      7.54742     13.16237         0.162296      0.097316     -0.721962
Pb      11.39801     11.55132      4.22744         0.711765     -0.186434      0.704643
Pb      11.72731     11.36260     17.42681         0.524849      0.189336     -0.193839
Pb      11.67212     11.50371      8.55270        -0.494342      0.069589      0.400597
Pb      11.71839     11.67431     12.95661        -0.054450     -0.780913      0.772979
Ti       1.98835      1.91685      2.37119        -0.334384     -0.128366      1.743783
Ti       2.12990      1.91836     15.48096        -1.359509     -1.192863      0.204182
Ti       1.92481     13.52156      2.35147         1.661007     -0.235999      1.357702
Ti       2.16072     13.39949     15.38974        -0.432707      0.694970      1.367416
Ti      13.45787      1.84427      2.29398        -0.355978      0.809138     -0.659099
Ti      13.71067      1.85068     15.45928        -0.526966      0.997518      0.390788
Ti      13.44447     13.45318      2.42352        -0.053408     -0.457554      0.443305
Ti      13.70360     13.31835     15.24448         0.491035      0.099862      4.061188
Ti       2.07170      1.87909      6.65199        -0.059195      0.212860      1.683246
Ti       2.06820     13.42805      6.72673         0.497346     -0.464372      0.792858
Ti      13.50311      1.80981      6.81124        -0.569814      0.917973     -1.077850
Ti      13.55753     13.44599      6.64705        -0.250312     -1.070355      0.842114
Ti       2.06122      1.88398     10.94027         0.805334      0.975059      2.088797
Ti       2.04924     13.50603     11.06193         0.153210     -0.906030      1.459422
Ti      13.58310      1.93138     11.00177         0.042694     -0.107183      2.116258
Ti      13.64575     13.41150     11.01144        -0.188497      0.859894      0.829231
Ti       1.93680      5.75173      2.21261         0.442306     -0.641823      3.820711
Ti       2.11378      5.73368     15.30995        -0.391817      0.031489      1.900519
Ti      13.43358      5.76141      2.28335         0.578257      0.387883      0.961063
Ti      13.71931      5.68968     15.45593        -0.738205      0.037190      1.198588
Ti       2.04854      5.71172      6.66129        -0.348293     -0.393406      2.140974
Ti      13.53338      5.70249      6.61840        -0.159953     -0.585370      1.410367
Ti       2.08486      5.68466     10.98115        -1.620687      0.195324      2.552149
Ti      13.60758      5.70412     10.97059        -0.106284      0.058523      0.005329
Ti       1.91472      9.52140      2.25778         0.477710      0.832576     -0.513912
Ti       2.17090      9.59019     15.39913        -0.563575      0.506188      1.184374
Ti      13.46079      9.60840      2.39333        -0.163291     -0.021863     -0.934781
Ti      13.65268      9.59698     15.27435        -0.359921      0.249293      1.106246
Ti       2.04415      9.50835      6.65612         0.521246      0.908467      1.083867
Ti      13.42178      9.50480      6.70218         1.207976      0.815497     -0.274302
Ti       2.04585      9.51674     11.10444        -0.329429      0.655866     -2.431392
Ti      13.53329      9.61286     11.08132         0.382018     -0.525957     -0.223682
Ti       5.74744      1.89960      2.20494        -0.120415     -0.491325      1.697618
Ti       5.91107      1.99218     15.48568         1.610349     -1.731017     -1.191141
Ti       5.77908     13.42737      2.28214         0.611616     -1.124339      0.326642
Ti       5.95581     13.31968     15.40284        -0.375148      1.513972      1.045625
Ti       5.89885      1.76199      6.62047         0.236809      0.448160      1.408108
Ti       5.94588     13.33744      6.75179        -2.672040      0.390394     -0.764727
Ti       6.01769      1.86261     11.11391        -2.075574     -0.044316     -0.294207
Ti       5.89710     13.37362     11.08811        -0.246942      0.573352     -0.802362
Ti       5.84036      5.71855      2.22333        -1.316110      0.724182      0.657701
Ti       5.95366      5.74428     15.33457         0.346054     -0.003480      2.587243
Ti       5.89253      5.74546      6.71834        -0.566198      0.214844      0.819166
Ti       5.88842      5.63668     11.11733         1.430927     -0.615956      1.126923
Ti       5.71115      9.57368      2.27618        -0.612220     -0.301813      2.026278
Ti       5.91556      9.60396     15.42673         0.302060     -0.916338     -0.130544
Ti       5.93190      9.56329      6.75963        -0.553284      0.255894      0.484667
Ti       6.01958      9.54984     10.98901        -0.849941      1.237761      0.177383
Ti       9.65932      1.86620      2.16358        -0.208597     -0.137980      2.156518
Ti       9.84128      1.90138     15.47398        -0.376402     -1.372064      0.745944
Ti       9.57617     13.40848      2.21649         0.408688      0.358916      0.662585
Ti       9.84571     13.24338     15.39496        -0.265164      3.074332      0.614626
Ti       9.67859      1.92821      6.56905        -0.582135     -0.342386      2.060995
Ti       9.67900     13.36633      6.62192        -0.015536      0.209249      1.508707
Ti       9.79768      1.91746     11.09471        -0.015360     -0.617171     -0.127048
Ti       9.74337     13.38439     11.12217         0.467816      0.789823     -0.035452
Ti       9.65683      5.81016      2.35212        -0.129830     -0.523147      0.368090
Ti       9.85056      5.78003     15.41629        -0.703280     -0.236320      0.068289
Ti       9.67972      5.71910      6.51967        -0.708565     -0.510270      2.578423
Ti       9.72467      5.60568     11.12876         0.271595      0.914537     -0.473005
Ti       9.66530      9.54992      2.26445         0.077149      1.583816      0.961523
Ti       9.76618      9.55702     15.45585        -0.022240     -0.297558      1.170007
Ti       9.68852      9.51169      6.62608        -1.575613      1.301868      0.976879
Ti       9.86456      9.51404     11.09217        -1.193901     -0.430521     -0.069652
O       1.97109      1.82142      0.68341        -0.081248      0.193146     -2.282239
O       2.05652      1.95997     13.74205         0.027073      0.092031     -0.663075
O       1.93181     13.53184      0.64609         0.155973     -0.293831     -1.376212
O       2.20569     13.40046     13.64434        -0.059157     -0.150770     -0.378811
O      13.48175      1.77260      0.54332        -0.099772      0.212400      0.191204
O      13.74940      1.92035     13.72360        -0.108448     -0.131535     -1.074474
O      13.38209     13.56230      0.69306         0.221634     -0.427329     -0.663064
O      13.69790     13.37548     13.60200         0.108789      0.065531     -2.906227
O       2.11429      1.78998      4.96602        -0.368939      0.297502     -1.575758
O       2.10446     13.37921      4.98693        -0.203539     -0.012721     -0.966723
O      13.36353      1.82927      5.06174         0.409625     -0.275305     -0.592616
O      13.67580     13.47778      4.92363        -0.594117      0.095638     -1.106059
O       2.17956      1.78152      9.23695        -0.347328      0.100031     -1.551948
O       2.03656     13.59065      9.34170        -0.242946     -0.144218     -1.185165
O      13.65108      2.00520      9.30044        -0.459545     -0.204596     -1.883048
O      13.54408     13.43844      9.28732         0.117789     -0.067180     -1.056059
O       1.93847      5.76929      0.57062        -0.105532     -0.063314     -4.123327
O       1.93920      5.69034     13.62507         0.226474     -0.151982     -0.900154
O      13.48882      5.82894      0.55654        -0.292995      0.031544     -0.282900
O      13.67536      5.77203     13.71548        -0.165619     -0.099563     -0.416407
O       2.10969      5.78241      4.98333        -0.370258      0.103147     -2.323736
O      13.29253      5.67617      4.92023         0.667457      0.336757     -1.551211
O       1.84265      5.75439      9.32573         0.486044      0.122894     -2.007890
O      13.65530      5.70595      9.18628        -0.447471     -0.136956      0.320470
O       1.92900      9.66616      0.45888        -0.098913     -0.554557      0.107912
O       2.21852      9.61713     13.70541        -0.007319      0.266167     -2.467927
O      13.43347      9.59649      0.57894         0.089953     -0.124516      0.849442
O      13.61487      9.51271     13.56193        -0.042627      0.155656     -1.871180
O       2.22095      9.54777      4.89288        -1.082020     -0.236543      0.188016
O      13.34466      9.54006      4.99662         0.414874     -0.318900     -1.669310
O       1.90622      9.60461      9.27229         0.098970     -0.316097      0.834156
O      13.59541      9.59271      9.28325        -0.092322     -0.139024      0.279103
O       5.57860      1.88009      0.51796         0.301412      0.014017     -1.108273
O       5.99547      1.98789     13.62369        -0.474108     -0.592120      0.990519
O       5.94672     13.31268      0.51830        -0.759577      0.039470     -0.226351
O       5.82728     13.40004     13.64013         0.117119     -0.228922      0.227084
O       5.95027      1.83104      4.88874        -0.245611      0.121213     -1.458482
O       5.71902     13.48345      4.96363         0.654288     -0.529727      0.506552
O       5.79684      1.93552      9.37745         0.263634     -0.344941     -0.683137
O       5.96064     13.39795      9.30855         0.034445     -0.061176      0.475656
O       5.73917      5.77342      0.51665         0.186001     -0.064188     -1.343411
O       6.10649      5.70424     13.66089        -0.408731      0.055053     -2.054014
O       5.90384      5.71983      5.02156        -0.021463     -0.108201     -1.788627
O       6.20705      5.58761      9.44457        -1.377133      0.529053     -0.772016
O       5.67822      9.58477      0.58312         0.026810     -0.031695     -1.730824
O       5.91108      9.58452     13.66360        -0.066274      0.265508     -0.353125
O       5.90694      9.64726      5.01467        -0.155131     -0.478740     -0.968024
O       6.00728      9.64293      9.27318         0.132895     -0.126928     -0.577557
O       9.63743      1.88024      0.47659        -0.057750      0.285163     -1.506368
O       9.72655      1.96806     13.73492         0.152335     -0.152045     -0.616394
O       9.72977     13.40442      0.46543        -0.227971     -0.355483      0.033457
O       9.75847     13.15261     13.68185         0.096531      0.320754     -1.830187
O       9.70679      1.88093      4.84972        -0.195061     -0.085391     -1.143003
O       9.60620     13.40441      4.92346         0.246632      0.207635     -0.872492
O       9.69881      1.92471      9.35308         0.441670      0.058449     -0.009495
O       9.77937     13.53223      9.35744        -0.175801     -0.568110     -0.030952
O       9.58028      5.76731      0.63007         0.124219     -0.011511     -0.921716
O       9.75494      5.75721     13.64090         0.422902      0.114928      0.584036
O       9.77585      5.74137      4.82004        -0.582567      0.121535     -1.493566
O       9.72078      5.57365      9.34539         0.125105      0.346103      0.174430
O       9.83389      9.56172      0.54611        -0.567608      0.227411     -1.031403
O       9.63359      9.54501     13.76133         0.400436     -0.090883     -1.304996
O       9.59154      9.48057      4.90799         0.175369      0.218397     -1.139524
O       9.88211      9.44413      9.34749        -0.226410      0.047033     -0.145252
O       3.81206      2.09885      2.71058         2.191289     -0.584079      0.146841
O       4.00580      1.97028     15.84960         0.666703     -0.145823     -0.063253
O       3.96968     13.44679      2.76169        -1.464849     -0.475480     -0.298670
O       4.07229     13.32633     16.02230        -0.135288      0.438701     -0.762681
O      15.38739      1.85988      2.75548        -0.324774     -0.030047      0.448583
O      15.51560      1.92621     15.92131         1.670854      0.182799      0.238192
O       0.14122     13.46195      2.73306        -2.120288     -0.060378      0.590385
O       0.22069     13.37054     15.92803        -0.007439      0.298848     -0.547254
O       4.04110      1.91285      7.07229        -1.240722     -0.447098     -0.025855
O       3.96848     13.41118      7.23435        -0.597860      0.311692     -0.015437
O       0.14766      1.92742      7.05169        -0.911268     -0.943860      0.040705
O      15.42440     13.42755      6.98807         0.440761     -0.340741      0.654937
O       3.96234      1.93154     11.47572        -0.209943     -0.604501      0.246014
O       3.98147     13.48200     11.45195        -0.053529      0.396695     -0.090763
O      15.50782      1.95812     11.36001         0.229893     -0.017952      0.127436
O      15.47743     13.41132     11.51167         1.276246      0.116737     -0.363744
O       3.87629      5.73759      2.66214         0.184998     -0.702531      0.303705
O       4.00334      5.73767     15.74992         0.636429     -0.241635     -0.365374
O       0.06684      5.73427      2.76465        -1.314852      0.372059      0.243829
O      15.52007      5.71782     15.94999         1.269987      0.216830     -0.540868
O       3.89391      5.71482      7.04383         0.980890      0.338388      0.750618
O      15.40150      5.77719      7.04066         0.497182     -0.103082     -0.406354
O       3.94234      5.67078     11.56655         1.158237      0.529312     -0.900296
O      15.45282      5.73199     11.46444         0.538632     -0.035345     -0.019531
O       3.76597      9.53955      2.75626         1.144303     -0.076311     -0.335850
O       4.05873      9.51877     15.73368         0.055869      0.091093      0.456383
O       0.06749      9.50959      2.68232        -0.744117      0.380392      0.672225
O      15.55544      9.51232     15.65367         1.047590      0.320031      0.535725
O       4.00915      9.57123      7.18081        -1.116249     -0.596712      0.314833
O      15.45252      9.65577      6.94892        -0.004051     -0.536081      0.223328
O       3.94874      9.63750     11.21499         0.939224     -0.579130      0.997918
O       0.20760      9.57997     11.51293        -1.696335      0.074790      0.085350
O       7.70904      1.81920      2.70973        -0.401246      0.846637     -0.605690
O       7.81595      1.79390     15.81213         0.795005      0.806248      0.125620
O       7.78291     13.23366      2.67329        -1.132576      0.711029     -0.274106
O       7.89685     13.42718     15.72954        -0.938911     -0.659701      0.021030
O       7.76918      1.89745      7.15309         0.180736     -0.351084     -0.553964
O       7.75549     13.38751      7.14189         1.431084     -0.229053      0.090446
O       7.85185      1.83107     11.38632         0.561227      0.261652      0.678355
O       7.92329     13.39315     11.55367        -1.268728     -0.354113     -0.172240
O       7.71539      5.79821      2.62268         0.068946     -0.080243      0.409750
O       7.90875      5.68414     15.90446        -0.037935      0.514495     -0.279256
O       7.71243      5.77501      7.24523         1.592534     -0.191684     -0.790212
O       7.90681      5.70694     11.49864        -1.668538      0.191447      0.351380
O       7.62781      9.68102      2.67934         0.556317     -0.469041     -0.448893
O       7.85437      9.66482     15.79729         0.053501     -0.265288      0.490528
O       7.83515      9.82825      7.14885         0.163799     -1.222950      0.159938
O       7.83769      9.55857     11.42473         0.909583      0.376251      0.182951
O      11.53891      1.92048      2.61114        -0.178310     -0.021200      0.374311
O      11.78848      1.93577     15.78521        -1.053381     -0.110742      0.245666
O      11.54416     13.42670      2.77661        -0.132881      0.379533      0.138380
O      11.79149     13.37702     15.57773         0.322015     -0.177862      0.522352
O      11.48283      1.84391      7.11315         1.656324      0.414998      0.252292
O      11.54698     13.47403      7.11746         0.732439     -0.113245     -0.302755
O      11.69076      1.86513     11.51328         0.274618      0.085028     -0.099328
O      11.73731     13.51350     11.54071        -0.523323     -0.324789     -0.246789
O      11.51582      5.92358      2.74729         0.845381     -0.607947     -0.332731
O      11.71891      5.79831     15.91439         0.492897     -0.055502     -0.574859
O      11.52287      5.71659      6.99357         0.470063     -0.168759      0.245856
O      11.68125      5.66354     11.55213         0.321011      0.132906     -0.080090
O      11.55970      9.60601      2.72362        -0.192727     -0.421778      0.205470
O      11.74653      9.59961     15.76674        -0.793855     -0.056705      0.038841
O      11.53809      9.40732      7.04585         0.771091      0.619484      0.255512
O      11.63998      9.69520     11.56266         1.566990     -0.857534     -0.173716
O       1.84843      3.86203      2.68525         0.168799     -0.388454      0.379399
O       2.12169      3.77077     15.93987        -0.130264      1.439929     -0.252364
O       2.08626      0.00074      2.82966        -0.301339      0.065056     -0.015195
O       2.19117     15.35209     15.79182         0.076093     -0.386717      0.133960
O      13.51407      3.79600      2.62319        -0.430012      0.758977      0.320545
O      13.59928      3.82426     15.87479         0.250286      0.758193     -0.003905
O      13.40447      0.04498      2.76394         0.467378     -1.259606      0.641610
O      13.72839     15.35632     15.81588        -0.353307     -1.792864     -0.341442
O       1.98556      3.79227      7.03634         0.311780      0.131401     -0.015629
O       2.03161     15.28766      7.13590        -0.014967      0.716965      0.073491
O      13.52241      3.76546      6.98285        -0.170286      0.361201      0.596812
O      13.50476     15.28228      7.09769         0.191525      0.605397      0.398608
O       2.05506      3.77620     11.48174         0.051819      0.518407     -0.343720
O       2.02133      0.05928     11.53352         0.527160     -0.653006     -0.619548
O      13.59782      3.84485     11.57677        -0.186692     -0.541782     -0.523860
O      13.71204     15.34529     11.43179        -0.506586      0.646279     -0.023487
O       1.95998      7.62847      2.57643        -0.101675      0.532017      0.659953
O       2.16146      7.64637     15.69128        -0.423980     -0.316503      0.331413
O      13.51529      7.66345      2.77692        -0.033570      0.065920      0.233520
O      13.67714      7.76779     15.73997        -0.098374     -1.818245      0.506919
O       2.08261      7.68453      7.19399        -0.518064     -0.389256     -0.331963
O      13.51136      7.60180      7.04503        -0.006455      0.296804      0.098842
O       2.01373      7.64432     11.47159         0.623164     -0.194579     -0.220718
O      13.52092      7.58943     11.40378         0.117551      1.243370      0.244490
O       1.97330     11.44747      2.71201        -0.141769      0.652630      0.257623
O       2.08559     11.55162     15.85900         0.364078     -1.064630     -0.178533
O      13.38298     11.51589      2.71749         0.909167      0.092231      0.225468
O      13.76169     11.39963     15.76734        -0.364969      1.602383      0.077145
O       2.11440     11.45847      7.05889        -0.590385      0.244994      0.225843
O      13.40974     11.43486      7.00711         0.244528      0.720807      0.412315
O       2.10450     11.55337     11.37751        -0.136064     -0.052066      0.476682
O      13.62095     11.51838     11.31412        -0.047075     -0.759834      0.459225
O       5.88124      3.77765      2.53594        -0.051733      0.351448      0.666534
O       6.07389      3.79913     15.82794        -0.688143      1.094440      0.160987
O       5.76944     15.20232      2.68570         0.488915      2.826901      0.033088
O       5.94797     15.35773     15.90472        -0.846446     -0.868269     -0.763135
O       5.84731      3.77892      7.02909         0.373288      0.334993      0.255511
O       5.87123     15.31368      7.06858         0.252302     -0.265053      0.180338
O       5.89029      3.68063     11.49600         0.162649      2.452281      0.257895
O       5.97507     15.30976     11.55093        -0.335064     -0.182103     -0.001713
O       5.69254      7.57836      2.67122         0.690438      1.388338      0.156497
O       6.12104      7.61851     15.80255        -0.738948      0.518255     -0.213509
O       5.92907      7.67356      7.16754        -0.100544     -0.309122      0.417710
O       6.00790      7.71788     11.39051        -0.714381     -1.627022      0.045717
O       5.66403     11.47671      2.67870         0.272068     -0.396409      0.132605
O       5.88869     11.47708     15.98299         0.411920     -0.166961     -0.740478
O       5.73437     11.45247      7.09290         0.775148      1.207813      0.502317
O       5.83094     11.56305     11.46032         0.650089     -1.298232      0.245241
O       9.62852      3.88710      2.73764        -0.059184     -0.463010     -0.440798
O       9.81948      3.88831     15.87844         0.232172     -0.587337     -0.003410
O       9.53519     15.34954      2.67019         0.763532     -0.468605     -0.124643
O       9.81050     15.28930     15.75830         0.400163      0.287398     -0.052650
O       9.61281      3.79913      7.04126         0.336011      0.698957     -0.421030
O       9.71051      0.02751      7.16482        -0.572368     -0.977810     -0.530697
O       9.73830      3.78372     11.58451         0.382645     -0.759464     -0.022397
O       9.69092     15.33699     11.46406         0.640129     -0.193535      0.579041
O       9.55149      7.79337      2.74148         0.408541     -1.538604     -0.160674
O       9.72010      7.60140     15.97454         0.367561      1.210721     -0.697997
O       9.70425      7.62144      6.98943        -0.706849     -0.375182      0.241463
O       9.82827      7.56600     11.61397        -0.151485      1.216899     -0.423788
O       9.68265     11.50401      2.76492        -0.197052     -0.479309     -0.679191
O       9.75983     11.51866     15.86323         0.429501     -2.344466      0.546236
O       9.79547     11.44844      7.04013         0.182836      0.864576      0.110997
O       9.80456     11.44827     11.48900        -0.315010      0.478197     -0.225938
