  # total energy = -7881.02983166 
CRSYTAL
PRIMVEC
    15.3600000000000000    0.0000000000000000    0.0000000000000000
     0.0000000000000000   15.3600000000000000    0.0000000000000000
     0.2400000000000000    0.0000000000000000    17.440000000000000
PRESSURE
1.13404 0.626938 0.763916 0.096962 -0.616173 0.031723
PRIMCOORD
320 1
Pb       3.91686      3.85146      4.33607        -0.666538      0.130167     -0.752841
Pb       4.02874      3.78517     17.39677        -0.028835      0.403569     -0.222691
Pb       3.85337     15.28638      4.37379        -0.225622      0.222715     -0.811174
Pb       3.78173      0.05808      0.02223         0.183753     -0.347922     -0.297888
Pb       0.05955      3.75290      4.29916         0.103202     -0.027434     -0.607648
Pb      15.57277      3.79964     17.39929        -0.034208      0.218766     -0.584673
Pb      15.32852     15.32506      4.31849         0.280155     -0.019938     -0.664853
Pb      15.44773     15.30131     17.41499         0.738761      0.107738     -0.770815
Pb       3.93640      3.89330      8.65739        -0.065758     -0.285550     -0.234494
Pb       3.85731     15.29495      8.72234        -0.349733     -0.118658     -0.604308
Pb       0.21005      3.87306      8.71937        -0.227471      0.249776      0.007830
Pb      15.40864      0.03015      8.75271         0.545644     -0.395273     -0.693293
Pb       3.94934      3.91626     13.02957        -0.057761     -0.694600     -0.147266
Pb       4.01618     15.28254     13.16158        -0.330282      0.341428     -0.237335
Pb       0.20140      3.75502     13.06837        -0.210781      0.627092     -0.001993
Pb      15.47627     15.26396     13.12317         0.127719      0.261212      0.373688
Pb       3.84393      7.56733      4.28407        -0.060709      0.271020     -0.078530
Pb       4.04602      7.48782     17.38570         0.101343      0.678274      0.060901
Pb      15.37417      7.61118      4.32206         0.073377      0.184386     -0.532580
Pb      15.57659      7.61235     17.26347        -0.213973      0.124114      0.279978
Pb       3.92429      7.70503      8.67546         0.331817      0.099413     -0.256338
Pb       0.17488      7.69939      8.77667         0.007998     -0.356082     -0.403109
Pb       4.10922      7.64711     12.97882        -0.461652      0.374152     -0.352849
Pb      15.37767      7.63617     13.14096         0.717781     -0.386552     -0.418367
Pb       3.80240     11.46247      4.26093         0.337483     -0.028690     -0.276273
Pb       3.90137     11.48771      0.14749         0.230179     -0.137997     -0.823658
Pb       0.09810     11.53619      4.20026        -0.085846     -0.070542     -0.151220
Pb      15.58647     11.47038     17.37322        -0.335492      0.344314      0.201692
Pb       3.93684     11.51340      8.68081         0.386995      0.103999     -0.354749
Pb      15.47510     11.39135      8.68347         0.005173      0.498319     -0.315966
Pb       3.88567     11.44898     13.14739         0.084938      0.194252     -0.296675
Pb      15.37016     11.53106     13.14645         0.545206      0.012955     -0.137232
Pb       7.67702      3.74360      4.41163         0.186552      0.193133     -0.631893
Pb       7.75924      3.86872      0.02944        -0.586825      0.454153     -0.271206
Pb       7.77622      0.05948      4.34618        -0.127355     -0.125460     -0.416581
Pb       8.05020      0.11442     17.40214        -1.097830     -0.945673      0.518119
Pb       7.74726      3.88574      8.64121         0.061885     -0.651120     -0.232547
Pb       7.81340     15.22780      8.59860        -0.093118      0.123954      0.058134
Pb       7.74010      3.75564     13.00671         0.058389      0.194932     -0.761620
Pb       7.69394      0.08467     12.93558         0.634258     -0.279432     -0.239754
Pb       7.75392      7.69551      4.38649        -0.509355     -0.026050     -0.527495
Pb       7.71735      7.61891      0.02101        -0.168433      0.715466     -0.287007
Pb       7.79370      7.67537      8.72832        -0.245778      0.424520     -1.130394
Pb       7.84839      7.73284     12.99071        -0.372187     -0.132557     -0.630166
Pb       7.72553     11.43892      4.24945        -0.479392      0.468515     -0.155219
Pb       7.66091     11.54652      0.07190        -0.132584     -0.137576     -0.322191
Pb       7.74260     11.48838      8.65084        -0.146417     -0.146772     -0.194711
Pb       7.79809     11.49268     13.09076         0.289325     -0.024921     -0.678477
Pb      11.57056      3.70659      4.44005         0.096460      0.267060     -0.682743
Pb      11.61124      3.74965     17.37493         0.621861      0.326819     -0.277877
Pb      11.62597     15.31844      4.33944        -0.216792     -0.181935     -0.404942
Pb      11.71351      0.03310     17.33185        -0.175893     -0.146389     -0.210311
Pb      11.64216      3.84780      8.73653         0.094975      0.160308     -0.630385
Pb      11.66040     15.30023      8.70067        -0.227976      0.195318     -0.564368
Pb      11.57629      3.87477     13.02730         0.502127     -0.216931     -0.330404
Pb      11.58699     15.23461     13.03152         0.046343      0.547115      0.019423
Pb      11.64271      7.67857      4.46572         0.262994     -0.355023     -0.702801
Pb      11.78961      7.62577     17.39545         0.026399      0.158792     -0.011338
Pb      11.73582      7.75675      8.73454         0.016254      0.018971     -0.934829
Pb      11.58439      7.76030     13.08384         0.344810     -0.363867     -0.252737
Pb      11.58497     11.51082      4.29380         0.056351      0.478618     -0.542356
Pb      11.62902     11.52544     17.43811        -0.149110      0.121763     -0.251872
Pb      11.67684     11.54616      8.59544        -0.182015     -0.562809      0.176213
Pb      11.57647     11.50974     13.03773         0.089233      0.140505      0.126983
Ti       1.95483      1.89782      2.25265         0.172930     -0.378104      1.119011
Ti       2.14974      1.85926     15.42846        -0.809700      0.428000      0.393333
Ti       1.93342     13.38834      2.17646        -0.379520      1.122739     -1.196293
Ti       2.15992     13.37044     15.47356        -0.396221      0.923792     -0.000258
Ti      13.44241      1.83567      2.28188         0.778131      0.915460      1.836490
Ti      13.62139      1.95971     15.27303        -0.074125      0.012024     -0.540058
Ti      13.53035     13.42000      2.16456        -0.701741     -0.278304      3.310092
Ti      13.55355     13.48923     15.39549         0.822735     -0.370077      0.488060
Ti       1.92772      1.93434      6.59499         1.124596     -0.717060      0.686161
Ti       1.99519     13.40558      6.60182         0.068985     -0.136792      1.314307
Ti      13.55462      1.91238      6.67936        -0.463119     -0.022579     -0.597505
Ti      13.48749     13.44010      6.65301         1.634977     -0.611614      0.260783
Ti       1.94473      1.88193     11.05531         2.347288      0.165909     -1.184747
Ti       2.08251     13.47411     11.14718        -0.309264     -0.647884     -0.093558
Ti      13.60517      1.87363     10.99198        -0.878574      0.713512      0.756354
Ti      13.62889     13.44078     11.09818        -0.533317     -0.523266      0.687897
Ti       1.84121      5.77539      2.27602         2.496709     -0.500734      0.518072
Ti       2.16124      5.78021     15.30692        -0.439932     -0.385249     -0.784392
Ti      13.40999      5.73719      2.27310         0.543743     -0.004247     -0.017153
Ti      13.65956      5.72866     15.36582        -0.089518      0.099815      0.045244
Ti       2.05381      5.72613      6.72207        -0.193213      0.577765     -1.308160
Ti      13.63585      5.74222      6.63134        -0.465135      0.727627      1.022630
Ti       2.09660      5.77673     11.07710        -1.561891     -0.153314     -0.857554
Ti      13.59690      5.73552     10.98183         0.896522     -0.508906      0.937553
Ti       1.87704      9.55385      2.14039         0.652017     -0.112716      1.221129
Ti       2.12165      9.63247     15.43301         0.589959     -0.737303      0.324294
Ti      13.44555      9.64276      2.27800         0.290335     -1.371495     -0.968997
Ti      13.59830      9.69814     15.43706         0.160424     -0.486245      0.069218
Ti       2.03207      9.59058      6.67311         0.981882     -0.604101     -0.583830
Ti      13.65445      9.56623      6.53861        -0.701216     -0.568460     -0.122360
Ti       2.04819      9.61483     11.10299         0.322417     -0.467767      1.839838
Ti      13.58081      9.54468     11.14351         0.817955      0.731380     -0.984602
Ti       5.78044      1.98107      2.30632        -0.382200     -1.359066     -0.047434
Ti       5.97348      1.88435     15.43265        -1.391845      0.394583      0.493285
Ti       5.70909     13.54646      2.30278         0.947130     -1.115239      0.000521
Ti       5.96983     13.41347     15.37425         0.015266      0.269169      2.366145
Ti       5.83212      1.83386      6.67701         0.755648      0.235020      0.233855
Ti       5.90887     13.43457      6.51110        -1.385530     -1.277125      1.229366
Ti       5.79885      1.88458     10.91811        -0.097609     -0.376033      2.785925
Ti       5.82066     13.41714     11.03335         1.180288     -0.376158     -0.774602
Ti       5.82653      5.80634      2.35229        -0.163481      0.154918      0.240174
Ti       5.96359      5.78479     15.33693        -0.224050     -0.737047      0.650710
Ti       5.89001      5.71066      6.57669        -0.215004      1.012540      0.653655
Ti       5.87427      5.68120     10.90127         0.820576      0.727547      0.918847
Ti       5.74501      9.67132      2.32488         0.146087     -0.351612     -0.282182
Ti       5.95939      9.62820     15.37068        -0.078334     -0.328796      2.562706
Ti       5.83857      9.65119      6.57124         0.703602     -1.117275      1.653611
Ti       5.90379      9.68346     10.95984        -0.394875     -0.884183      0.988906
Ti       9.65306      1.94968      2.30045        -0.013078     -0.355266      2.077119
Ti       9.67565      1.96556     15.30226         1.430888     -0.323135      0.231674
Ti       9.61573     13.45948      2.38585         0.065001      0.685278     -0.809343
Ti       9.71931     13.56062     15.35529         0.312574     -1.990662      1.274051
Ti       9.69221      1.86753      6.66348        -0.107624     -0.270373      1.567629
Ti       9.70894     13.37047      6.64300        -0.703804      0.130585     -0.850425
Ti       9.82019      1.88794     10.96258        -1.235261     -0.159663      1.351855
Ti       9.74643     13.41337     10.98498        -1.125459      0.311613      0.789121
Ti       9.68234      5.72643      2.42427        -0.696637     -0.428245     -0.699673
Ti       9.77937      5.79664     15.31392         0.274449      0.091053      0.762032
Ti       9.69538      5.70536      6.67666         0.877555      0.486600     -0.532149
Ti       9.78483      5.79175     10.92896        -0.470322     -0.461186      2.166228
Ti       9.66633      9.60616      2.38456        -0.505235     -0.487693     -2.132220
Ti       9.82924      9.64125     15.45492        -1.276025      0.622992      0.613141
Ti       9.73505      9.54304      6.60652        -0.863071      0.323979      1.792444
Ti       9.79332      9.58220     10.93170        -0.856927      0.812336     -0.232868
O       2.07230      1.84742      0.52164        -0.639982      0.487125     -1.774574
O       2.20343      2.01405     13.70534        -0.157031      0.010863     -1.806134
O       1.89457     13.35613      0.35859        -0.016424      0.355691      0.824174
O       2.20145     13.40375     13.66317        -0.159486     -0.056417      0.274336
O      13.38494      2.07443      0.60871         0.013174     -0.608612     -2.394487
O      13.63504      1.93797     13.49180        -0.055806      0.107553      0.461615
O      13.54093     13.49327      0.49395        -0.501312      0.208616     -2.898268
O      13.61430     13.40689     13.62701        -0.017911      0.097511     -0.161878
O       2.00946      2.00714      4.85609        -0.398200     -0.362302     -0.047488
O       2.02078     13.36383      4.88529        -0.402753     -0.023678     -1.752176
O      13.50540      1.82895      4.89979         0.555581      0.019612     -0.030996
O      13.60029     13.41471      4.91901        -0.213694     -0.112739     -0.397749
O       1.97071      1.81020      9.24470        -0.075112     -0.146565      0.088762
O       2.06634     13.51766      9.38403         0.180317     -0.043843     -0.564808
O      13.58408      1.79805      9.19869        -0.200222     -0.015040     -0.199993
O      13.53680     13.42204      9.34680        -0.069585      0.059936     -0.811872
O       1.95207      5.71955      0.52656        -0.042253      0.236544     -0.432749
O       2.08801      5.74742     13.46902         0.507805     -0.493151      1.047291
O      13.48620      5.79338      0.50033        -0.143436     -0.495540     -0.173443
O      13.73205      5.74312     13.60401        -0.455093      0.043183     -0.089738
O       2.06427      5.70732      4.89695        -0.292733      0.225840      0.703250
O      13.59921      5.90532      4.89859         0.225521     -0.152649     -1.242236
O       2.05465      5.74440      9.20452         0.105495     -0.137992      0.651359
O      13.68908      5.71330      9.23038        -0.278260      0.470099     -0.725126
O       1.98451      9.58852      0.42742        -0.208220     -0.143322     -1.293692
O       2.19720      9.66619     13.69355        -0.225780     -0.066341     -1.204355
O      13.36001      9.56457      0.50258        -0.203563      0.191056     -0.058441
O      13.53791      9.72379     13.62903         0.128289     -0.284677      0.219810
O       1.99838      9.62507      4.90984        -0.177326      0.053926      0.193961
O      13.65767      9.47484      4.72237        -0.147494      0.356121      0.761097
O       2.13896      9.57346      9.41340        -0.433251     -0.097948     -2.796296
O      13.64130      9.51323      9.35065        -0.318811      0.070557      0.261290
O       5.81555      1.69331      0.57320        -0.275658      1.091300     -0.628092
O       5.89183      1.84803     13.70033         0.281647      0.369043     -1.392849
O       5.77002     13.46457      0.55443        -0.373586     -0.093293     -0.071125
O       5.84878     13.36518     13.65024         0.330336      0.058722     -0.790602
O       6.02811      1.75657      4.94451        -0.392280      0.466860     -1.398188
O       5.82015     13.44691      4.78664         0.088461      0.148369     -1.165182
O       5.71000      1.93797      9.25922         0.440031     -0.275591     -3.455536
O       5.85960     13.27543      9.25535        -0.664676      0.597366      0.177536
O       5.70312      5.80588      0.60527         0.303111     -0.025271     -0.632183
O       5.93532      5.63795     13.59100        -0.174057      0.323735     -0.908122
O       5.87978      5.74026      4.82261         0.153946     -0.114892     -0.585217
O       5.92756      5.66884      9.14175        -0.281992     -0.097125     -0.034223
O       5.88337      9.66407      0.56600        -0.442080     -0.032890     -0.285829
O       5.91047      9.67328     13.65762         0.347364      0.005530     -1.627298
O       5.91562      9.61064      4.85216        -0.135761      0.277600     -1.466146
O       5.84583      9.67938      9.23215         0.543595     -0.150246     -0.600769
O       9.52923      1.89459      0.58022         0.469604      0.354785     -1.959203
O       9.62024      1.74185     13.60088         0.229880      0.944053     -0.840884
O       9.68855     13.64584      0.61108         0.316479     -0.334813      0.070886
O       9.75109     13.40915     13.64624        -0.165359     -0.006249     -1.631267
O       9.60955      1.92442      4.95104         0.076682      0.299340     -1.456068
O       9.73926     13.46525      4.86648        -0.064209     -0.665299     -0.144972
O       9.75572      1.86142      9.21903         0.610577     -0.043944     -0.566599
O       9.89345     13.55906      9.25523        -0.078735     -0.116711     -1.157300
O       9.58946      5.56903      0.62681         0.168510      0.428091      0.055628
O       9.78981      5.89784     13.57435        -0.030071     -0.133184     -0.815527
O       9.74239      5.66145      4.89103        -0.265491      0.088321      0.290112
O       9.82962      5.71163      9.22280        -0.058468     -0.076577     -1.569500
O       9.63044      9.56440      0.53057         0.110785      0.071938      1.349421
O       9.74213      9.79870     13.69296         0.291631     -0.905171     -0.685495
O       9.57817      9.68927      4.87699         0.356199     -0.386565     -1.256100
O       9.74027      9.40819      9.17344         0.076454      0.385585      0.101216
O       3.80418      2.00320      2.66925         2.009412     -0.415274      0.539189
O       3.99879      1.79442     15.74527         1.114952      0.722476      0.695648
O       3.73803     13.47470      2.62145         1.796202     -0.499094      0.441224
O       4.06297     13.37445     15.82408         0.294237     -0.041988     -0.151196
O       0.10298      1.79107      2.62683        -1.006981      0.052029      0.541662
O      15.50437      1.91508     15.55712         0.497661      0.291678      1.050894
O       0.05802     13.46186      2.59676        -0.126192      0.141696      0.673686
O      15.53764     13.52724     15.74049        -0.034057     -0.406367      0.125012
O       3.99702      1.90333      6.88287        -1.497274     -0.273976      0.663501
O       3.95685     13.37551      6.88763        -0.158932      0.413679      0.692027
O       0.09796      1.90057      7.02264         0.072556     -0.260748      0.209665
O       0.10977     13.28421      7.00157        -0.626399     -0.152485      0.487499
O       3.89368      1.93687     11.21971         0.567956     -0.250309      0.868641
O       3.95525     13.44556     11.55214         0.404775      0.065815     -0.247723
O      15.48312      1.88659     11.34004        -0.394161     -0.071212      0.537375
O      15.50078     13.51109     11.52477         0.269873     -0.524380      0.026203
O       3.91978      5.77614      2.76377         0.151126     -0.221187      0.047326
O       4.03846      5.73099     15.85476         0.032229      0.393696     -0.451942
O       0.09356      5.87720      2.57007        -1.760920     -0.270571      0.677485
O       0.26159      5.70549     15.66547        -0.718476      0.482771      0.583360
O       3.99939      5.68673      6.93441        -0.014438     -0.415909      0.671778
O       0.16087      5.83783      7.08858         0.003902     -0.316773      0.095399
O       3.96160      5.77917     11.36403         1.713439     -0.505989      0.004341
O      15.45490      5.76362     11.50103         0.206671      0.236502     -0.306400
O       3.86191      9.72197      2.62855        -0.420235     -0.107417      0.138675
O       4.01804      9.65469     15.77578         0.543594      0.190598      0.145412
O      15.37017      9.48418      2.42001         0.313447      0.145014      0.803149
O      15.49029      9.70531     15.77442         0.216796     -0.577442     -0.080485
O       4.00704      9.48771      7.07373        -1.009853      0.258868      0.092277
O       0.17539      9.54275      7.09014        -0.200063      0.329717      0.121595
O       3.98665      9.48345     11.24207         0.956051      0.282749      1.203425
O       0.17982      9.46387     11.34266        -0.654876      0.330410      0.809132
O       7.76801      1.99661      2.68203        -0.372857     -0.360270      0.380932
O       7.84515      2.02367     15.74833         0.489063      0.111199      0.437432
O       7.73678     13.41339      2.50532         0.251544      0.037834      0.891850
O       7.92476     13.52328     15.91318        -0.960868     -0.565797     -0.451592
O       7.78327      1.81445      7.06547         0.868051      0.168476      0.603751
O       7.76775     13.29435      7.06565         0.783035      0.255919     -0.048468
O       7.84624      1.87225     11.37091        -0.178197      0.422431      0.039293
O       7.76039     13.46907     11.19887         0.847258     -0.152161      0.837560
O       7.76976      5.65239      2.65672        -0.339506      0.218191      0.597872
O       7.83531      5.62699     15.68989         0.792155      0.491431      0.451535
O       7.77915      5.62181      6.98320         1.118185      0.195173      0.435609
O       7.81555      5.74406     11.29026         0.261930     -0.164317      0.089030
O       7.65943      9.73646      2.66162         1.765628     -0.307717      0.518959
O       7.92711      9.55682     15.82753        -0.202934     -0.130409     -0.096573
O       7.78392      9.70111      7.06229         0.386594     -0.813968      0.083639
O       7.91547      9.65362     11.50520        -0.715136     -0.390112     -0.237192
O      11.61430      1.94534      2.75339        -0.624000     -0.329233      0.168320
O      11.65460      1.96808     15.69799         0.140794     -0.490893      0.235916
O      11.69366     13.37746      2.77935        -0.989229     -0.071282      0.032142
O      11.67911     13.46134     15.77970         0.152998      0.589846      0.212358
O      11.65774      1.73370      6.90355         0.011626      0.772746      0.850453
O      11.57063     13.35829      7.02212         1.387720      0.071070      0.351983
O      11.71496      1.89396     11.53290        -0.563668     -0.048855     -0.693578
O      11.63011     13.33032     11.54520         0.704137      0.807938     -0.414565
O      11.58271      5.61716      2.73646         0.321956      0.435442      0.233018
O      11.75226      5.83433     15.62432        -0.237120     -0.280983      0.373612
O      11.72239      5.83022      6.89593        -0.434835     -0.226364      0.917763
O      11.72267      5.78545     11.30865        -0.890889     -0.127955      0.481305
O      11.57869      9.51841      2.73456        -0.533703      0.487003      0.493226
O      11.71648      9.57751     15.82365         0.044938     -0.005127      0.040388
O      11.63902      9.43209      6.98696         0.452369      0.353602     -0.223458
O      11.64729      9.59661     11.32927         0.187248      0.324533      0.633577
O       1.96876      3.84140      2.73149        -0.474521      0.531780     -0.122384
O       2.08911      3.95327     15.83436         0.537792     -1.701121      0.093148
O       2.08133     15.33954      2.55569        -0.531320     -0.231197      0.640822
O       2.12343      0.00903     15.73458        -0.108118     -0.792171      0.307974
O      13.64681      3.73670      2.68507        -0.154339      1.316763      0.504452
O      13.63802      3.82658     15.68743        -0.051804      0.273795      0.510370
O      13.43500     15.27002      2.61949         0.464002      0.904647      0.365659
O      13.68415      0.04279     15.80093        -0.751713     -0.034379      0.028681
O       1.96433      3.82303      7.09208         0.389212     -0.596788      0.111338
O       1.88220     15.26506      6.96380         0.719535      1.227838      0.303557
O      13.70407      3.86249      6.88751        -0.669726     -0.689806      0.518367
O      13.58741     15.29568      6.96061         0.111493     -0.162326      0.641578
O       2.02609      3.86303     11.32286        -0.071040     -0.969205      0.550245
O       2.10030     15.34457     11.50017        -0.260680      0.597425      0.407549
O      13.58037      3.80391     11.22786        -0.071737     -0.043250      0.431517
O      13.65231     15.33389     11.52866        -0.603959      0.018455     -0.477941
O       2.12595      7.73757      2.66834        -0.542397     -0.777225     -0.064506
O       2.12920      7.65458     15.65202        -0.169897      0.384277      0.534271
O      13.43995      7.61734      2.62757        -0.091613     -0.171105      0.570321
O      13.68737      7.70871     15.87059        -0.068307     -0.031916     -0.748406
O       2.12733      7.59875      7.14262        -0.236115      0.989620     -0.054797
O      13.70112      7.76163      7.03809        -0.359909     -0.715100      0.276759
O       2.12805      7.54858     11.51878        -0.331295      1.895182     -0.028236
O      13.55124      7.71247     11.61233        -0.226890     -0.519343     -0.294684
O       1.86540     11.50907      2.52866         0.096119     -0.377191      0.613678
O       1.99120     11.48362     15.85066         0.672145      0.785478     -0.389001
O      13.54484     11.49912      2.54118         0.008634      0.060076      0.716913
O      13.56363     11.60865     15.88539         0.125645     -0.656453     -0.290681
O       2.09642     11.42894      7.11109        -0.235974      0.348046      0.158798
O      13.56272     11.39771      7.03166        -0.280264      0.623053      0.248214
O       2.08667     11.51184     11.50953        -0.222433     -0.062605     -0.046004
O      13.67769     11.53075     11.52160        -0.202561     -0.428379     -0.229191
O       5.80405      3.79768      2.66540         0.145295      0.841778      0.356758
O       5.82237      3.88419     15.80354         0.427905     -0.941982      0.099686
O       5.85896      0.01476      2.62821        -0.438276      0.366181      1.037698
O       5.99955     15.35695     15.74272        -0.030476     -0.467566     -0.009257
O       6.03841      3.75036      6.97893        -0.796044      0.348232      0.214184
O       5.97017     15.23264      6.91432        -0.279143      0.921134      0.882492
O       5.85778      3.75463     11.35437         0.313456      1.256125      0.239693
O       5.95965     15.32847     11.36310        -1.061033      0.429140      0.080926
O       5.87638      7.76852      2.66422        -0.016121     -1.184505      0.493996
O       5.93785      7.70303     15.69083         0.113356     -0.435812      0.234555
O       5.96082      7.64596      6.92578         0.191449     -0.401793      0.518481
O       6.00212      7.66853     11.34206        -0.160428     -0.190385      0.208616
O       5.75750     11.59568      2.74025        -0.076511      0.077179      0.091348
O       6.03977     11.48295     15.96901         0.026577      0.798642     -0.759117
O       5.82933     11.45028      7.05080        -0.054285      1.231775     -0.052431
O       5.89340     11.52444     11.43459        -0.072491     -0.492565      0.246160
O       9.75918      3.78192      2.73007        -0.255960      0.273380      0.471780
O       9.90155      3.88218     15.73300        -0.695657     -0.238394     -0.081899
O       9.69542      0.03655      2.77093         0.171503     -0.077796      0.183495
O       9.74369      0.02282     15.68000         0.457882      1.461877      0.610351
O       9.85307      3.78927      7.14627        -0.278200      0.120441     -0.107526
O       9.72622     15.27566      6.89669        -0.302178      0.105031      0.946393
O       9.76380      3.83274     11.48127         0.292203      0.116167     -0.368478
O       9.75125      0.00671     11.46724         0.431276     -0.195875     -0.262314
O       9.60763      7.68370      2.75050         0.127705     -0.251667      0.209489
O       9.82118      7.61828     15.91066        -0.250338      0.224191     -0.481679
O       9.62889      7.60887      7.04943        -0.077499      0.118505     -0.151338
O       9.81996      7.70555     11.29539        -0.354885     -0.654693      0.720023
O       9.73928     11.52036      2.61681         0.115670     -0.084704      0.598920
O       9.78047     11.56449     15.75019         0.373232     -0.368497      0.710046
O       9.74804     11.44464      7.08810         0.428254      0.285065      0.034896
O       9.69564     11.54956     11.24700         0.369132     -0.655727      0.414017
