  # total energy = -7881.26413438 
CRSYTAL
PRIMVEC
    15.3600000000000000    0.0000000000000000    0.0000000000000000
     0.0000000000000000   15.3600000000000000    0.0000000000000000
     0.2400000000000000    0.0000000000000000    17.440000000000000
PRESSURE
1.12195 1.43253 3.42709 0.003761 -0.633743 0.002565
PRIMCOORD
320 1
Pb       3.87569      3.85498      4.30066         0.488718     -0.249273     -0.043958
Pb       4.01742      3.81320     17.38638        -0.118812     -0.389662     -0.450113
Pb       3.79273     15.26915      4.30941         0.710874      0.285385     -0.627946
Pb       4.14795     15.33459     17.39304        -0.496270      0.301375      0.500578
Pb       0.06419      3.79232      4.30103         0.001362      0.230218     -0.190021
Pb      15.50304      3.81202     17.38056         0.124881      0.135416      0.578663
Pb      15.34014     15.19740      4.26561         0.080445      0.776091     -0.163365
Pb      15.55972      0.02087     17.34918         0.190548      0.009974      0.542038
Pb       3.91237      3.84036      8.62190        -0.703416      0.448354      0.085337
Pb       3.86497     15.35188      8.71597         0.125064     -0.098088     -0.177119
Pb      15.45169      3.90415      8.69390         0.587517     -0.660818     -0.009392
Pb       0.14694      0.01524      8.69764        -0.407148      0.377520      0.093576
Pb       3.95719      3.80583     13.05409        -0.015569      0.965714     -0.375905
Pb       4.01507     15.29371     13.05758        -0.234501     -0.354838     -0.624353
Pb      15.53085      3.67205     13.14873        -0.270729      0.456320     -0.878953
Pb      15.48380     15.23211     13.06530        -0.175341      0.100596     -0.759311
Pb       3.85641      7.60760      4.26059         0.204188      0.142599      0.300028
Pb       4.17116      7.56766     17.42651        -0.428161      0.546969     -0.440178
Pb      15.34509      7.68626      4.33618         0.385940     -0.188416     -0.254509
Pb       0.24578      7.59225     17.29757         0.424510      0.150356     -0.222433
Pb       3.91495      7.76943      8.67811        -0.151097     -0.655487     -0.170833
Pb       0.21268      7.70910      8.78623        -0.166530     -0.243598     -0.466832
Pb       4.05724      7.70706     12.95843        -0.344223     -0.761982      0.681569
Pb      15.42969      7.69271     13.16706         0.384278      0.043235     -0.376726
Pb       3.76088     11.52548      4.23436         0.653621     -0.458191     -0.306091
Pb       3.92270     11.44210      0.10745        -0.283450      0.347575     -0.538710
Pb      15.40659     11.47899      4.16826         0.031131     -0.581835     -0.185713
Pb      15.57719     11.45078     17.37672         0.303461     -0.088564     -0.150610
Pb       3.90842     11.52378      8.66264         0.013357     -0.201987     -0.220766
Pb       0.17134     11.45116      8.65454        -0.250569     -0.102549     -0.007123
Pb       3.89202     11.42113     13.18113         0.290988      0.199855     -0.293157
Pb      15.36955     11.47962     13.09985         0.089067     -0.238201     -0.042679
Pb       7.68339      3.71219      4.43239        -0.203315      0.624161     -0.228552
Pb       7.68847      3.90679      0.03457         0.256266     -0.732579     -0.667481
Pb       7.71368     15.35986      4.36929        -0.071013     -0.221579      0.150358
Pb       7.99187      0.04127     17.37105        -0.204537      0.177762     -0.074291
Pb       7.74303      3.84619      8.58390         0.320377      0.211029      0.233723
Pb       7.85286     15.21710      8.58119        -0.632323      0.107944     -0.484906
Pb       7.71643      3.82390     12.92013         0.434947      0.272655      0.278150
Pb       7.65964      0.13060     12.90651         0.309794     -0.980493      0.029448
Pb       7.77950      7.66188      4.33580        -0.162271      0.063893     -0.131923
Pb       7.70752      7.64252      0.02413         0.333974      0.451884      0.107243
Pb       7.78631      7.64212      8.72645         0.265019     -0.065302     -0.425877
Pb       7.83378      7.75703     13.01057         0.302123     -0.347041      0.066218
Pb       7.82871     11.42313      4.24190        -0.443838      0.099928      0.632493
Pb       7.60001     11.59351      0.04620         0.064008      0.040048      0.350163
Pb       7.67855     11.49309      8.63670         0.538688      0.204425     -0.511599
Pb       7.80688     11.56921     13.05896        -0.250638      0.153677     -0.470458
Pb      11.61069      3.76640      4.45672        -0.434919      0.709767     -0.480846
Pb      11.55378      3.83348     17.35926         0.233118      0.381351     -0.214652
Pb      11.61449     15.35350      4.42480        -0.117351     -0.136979     -0.465445
Pb      11.77698      0.13752     17.32218        -0.384297     -0.563849     -0.186781
Pb      11.70744      3.89052      8.69244         0.023513     -0.479228      0.189224
Pb      11.60557     15.31578      8.67477         0.408615      0.178702     -0.302520
Pb      11.57880      3.89182     13.04236         0.210884     -0.424073     -0.105405
Pb      11.54369     15.15072     13.07267         0.456675      0.480367     -0.557749
Pb      11.62503      7.61692      4.50390        -0.413443     -0.097295     -0.797702
Pb      11.73347      7.61475     17.34055        -0.416183     -0.067543      0.249736
Pb      11.68847      7.69670      8.66429         0.238339      0.064630     -0.024971
Pb      11.71528      7.67192     13.11025        -0.294340      0.264703     -0.668261
Pb      11.62842     11.49214      4.19629        -0.292775     -0.278464      0.344284
Pb      11.57796     11.57404     17.41002         0.538165      0.066761      0.394722
Pb      11.65920     11.60414      8.61296        -0.075461     -0.361184     -0.111439
Pb      11.56620     11.50969     13.03936         0.101804     -0.250609     -0.357918
Ti       1.91777      1.88083      2.34450        -0.336579     -0.060017      0.657866
Ti       2.04009      1.89022     15.26404         1.491220      0.421411      2.822237
Ti       1.97954     13.47328      2.28555        -0.052675     -0.936012     -1.451365
Ti       2.10334     13.51116     15.42967         0.653277     -1.530927      0.969057
Ti      13.41801      1.96579      2.33343         0.950551     -0.668001      2.367032
Ti      13.63293      1.94541     15.25794        -0.978445      0.308709     -0.352965
Ti      13.42509     13.41599      2.31843         0.863508      0.384329      0.665773
Ti      13.65080     13.40941     15.44565        -1.082863      0.257844      0.220352
Ti       2.07498      1.82056      6.51137        -0.925383      0.852450      3.195960
Ti       2.01281     13.40338      6.56892        -0.446864     -0.685019      0.906017
Ti      13.58604      1.81176      6.67234         0.553976      0.349050      1.981415
Ti      13.63453     13.34086      6.59553        -1.038967      0.669556      2.721304
Ti       2.04117      1.86589     11.05230        -0.778901     -0.438708     -0.271746
Ti       1.98801     13.30166     11.10731         1.099119      0.322377     -0.295672
Ti      13.48997      1.88871     11.14602         1.112727     -0.191115     -0.182787
Ti      13.48021     13.36407     10.95176         0.290353     -0.060881      0.317676
Ti       1.99271      5.69677      2.26318        -1.186856      0.169654     -0.240051
Ti       2.13066      5.72949     15.39745         0.330577      0.923462     -1.215719
Ti      13.41310      5.70538      2.35164        -0.005522      0.428493      2.390359
Ti      13.58674      5.72800     15.32215         0.194853     -0.414324      0.345611
Ti       1.99415      5.74830      6.66291         0.795827      0.059184      1.077226
Ti      13.57042      5.70456      6.66957         0.570349      0.723998      1.374211
Ti       2.04639      5.70634     11.09362         0.584158      0.827464     -1.461844
Ti      13.63072      5.74480     11.02402        -0.175887      0.254002      0.356966
Ti       1.95821      9.50858      2.21009         0.058050      0.305587      0.138780
Ti       2.26475      9.58499     15.42455        -1.058350     -0.382586      0.494404
Ti      13.45296      9.46402      2.13356         0.533365      0.452473      1.769614
Ti      13.61341      9.58406     15.49127         0.121054      0.271014     -0.771808
Ti       2.07595      9.56722      6.57815        -0.540346     -0.755052      1.095230
Ti      13.54354      9.58430      6.65667         1.009329     -0.336723      1.118870
Ti       2.08148      9.54866     11.15611        -0.172402     -0.479911      2.601597
Ti      13.53376      9.54943     11.07380         0.080672      0.116967     -0.312783
Ti       5.74726      1.88689      2.25247         0.317507      0.376189      2.800528
Ti       5.93680      1.97501     15.29749         0.326891      0.011205      3.234042
Ti       5.92414     13.43882      2.41323        -1.020547     -0.246367     -0.033738
Ti       5.93048     13.54526     15.48819         0.522738     -0.887759      0.643019
Ti       5.84850      1.87260      6.69165        -0.125030      0.179968      0.228459
Ti       5.72373     13.39164      6.56239         2.879745      0.129067      0.137326
Ti       5.82491      1.92058     10.85838        -0.159285     -0.341159      3.791640
Ti       5.81863     13.39007     10.93835        -0.046385     -0.230265      1.220506
Ti       5.84559      5.73406      2.23752         0.111560     -0.088144      2.510703
Ti       6.02539      5.76468     15.49025        -0.251194      0.345449     -1.114017
Ti       5.84592      5.76722      6.81233         0.153663     -0.075133      1.055568
Ti       6.01770      5.76488     10.96322        -1.782904     -0.037183      1.165722
Ti       5.75781      9.56094      2.37027         0.958490      0.323500      0.740746
Ti       5.99758      9.60785     15.45954         0.231790      0.355163      1.074144
Ti       5.99372      9.51689      6.66337        -1.087257      0.569919     -1.304915
Ti       5.97619      9.57053     11.00576        -0.797063      0.535970      1.212423
Ti       9.62161      1.98309      2.47654        -0.144025     -0.175145      1.567565
Ti       9.78262      1.93438     15.24703        -0.729082      0.763705      1.871656
Ti       9.69856     13.53096      2.40473        -0.669188     -1.087911      0.922067
Ti       9.76624     13.44306     15.37229         0.131701      0.623601      2.192879
Ti       9.75045      1.98595      6.74277        -0.492361     -0.410141      1.585094
Ti       9.73048     13.43001      6.61135        -0.976817     -0.278650     -0.458690
Ti       9.72539      1.90299     10.94094         0.378519     -0.250175      0.696578
Ti       9.62627     13.44698     10.88282        -0.281742     -0.513539      0.889095
Ti       9.60269      5.76931      2.30341         1.179188      0.205560      1.449417
Ti       9.80162      5.82509     15.27207        -0.563689     -1.153815      2.120744
Ti       9.82283      5.77241      6.74365        -1.781948     -0.417090      0.450483
Ti       9.81265      5.68945     10.94670        -0.086410      1.054714      1.033239
Ti       9.67568      9.57863      2.30746        -1.021367     -0.348520      0.223585
Ti       9.71626      9.65471     15.44851         0.435483     -0.493700      0.553789
Ti       9.75979      9.61904      6.64701         0.040255     -0.132621     -0.156308
Ti       9.69642      9.57146     10.97458         1.315410      0.129996      1.684498
O       1.70805      2.04871      0.65745         0.577410     -0.490220     -1.870071
O       2.03821      1.81736     13.56199        -0.044819      0.155815     -0.366658
O       1.95094     13.58519      0.50432        -0.118145     -0.436969      0.181866
O       2.08618     13.45894     13.69541         0.041257      0.031238     -0.774482
O      13.45655      1.82097      0.65234        -0.291566      0.227864     -2.347013
O      13.62325      2.00995     13.48328         0.278218     -0.281287      0.731308
O      13.36391     13.40054      0.62506         0.190589      0.430932     -2.180854
O      13.57785     13.44357     13.72549        -0.033479     -0.111736     -1.249728
O       1.95720      1.86868      4.82766         0.167765      0.008881     -1.653427
O       1.93261     13.31757      4.81225         0.297377      0.106345      0.105266
O      13.59461      1.82121      4.96811        -0.250507      0.148783     -1.427921
O      13.56127     13.42586      4.88561         0.114872     -0.087449     -1.543156
O       1.98741      1.72780      9.26352         0.213709      0.312339      0.778622
O       2.18855     13.18891      9.33246        -0.383049      0.388513      0.415723
O      13.69354      1.78781      9.38421        -0.354059      0.229790      0.327973
O      13.53643     13.26696      9.19578        -0.131269      0.433538      0.647156
O       1.97890      5.70451      0.46300         0.026292     -0.103776      0.735989
O       2.19697      5.62520     13.61420        -0.762435      0.349562      0.418842
O      13.20360      5.65111      0.68750         0.221337      0.193068     -2.644193
O      13.56844      5.76792     13.58132         0.222593     -0.125752     -0.234543
O       1.98487      5.83417      4.91472         0.139128     -0.435965     -0.489575
O      13.58264      5.67605      4.94413        -0.242721      0.038195     -0.432773
O       2.14914      5.81887      9.22006        -0.421655     -0.286163      1.819997
O      13.56980      5.95299      9.25581        -0.066731     -0.687317      0.002094
O       1.89680      9.55806      0.44060         0.264596     -0.150714      0.164205
O       2.29699      9.49874     13.68127        -0.284036      0.284789     -0.853676
O      13.49090      9.54385      0.37519         0.112916     -0.174256      0.086228
O      13.59680      9.46600     13.69500        -0.227723      0.483477      0.843800
O       1.95274      9.49309      4.87748         0.024617      0.235283     -1.479028
O      13.63445      9.60409      4.94415        -0.162249      0.132240     -1.343723
O       2.01604      9.57516      9.47067        -0.041311      0.199510     -2.384749
O      13.58174      9.52461      9.28090        -0.057350      0.164345      0.615650
O       5.78598      2.11649      0.58384        -0.019826     -0.499430     -1.891319
O       6.02073      1.96020     13.60085        -0.139042     -0.217942     -1.679111
O       5.81477     13.52222      0.62764         0.038648      0.078183      0.038273
O       6.03142     13.52891     13.78621        -0.218083     -0.000321     -1.258912
O       5.82074      2.12533      4.95891         0.054290     -0.561937     -0.139729
O       5.80906     13.41867      4.80412        -0.577619     -0.056416      0.205662
O       5.79885      1.69073      9.22145        -0.260446      0.394339     -2.365488
O       5.65804     13.53975      9.22503         0.542603     -0.571232     -1.152303
O       5.88534      5.75279      0.52740        -0.570654     -0.043550     -1.472086
O       5.99395      5.78982     13.72885         0.645218     -0.180143      0.015336
O       5.85450      5.73643      5.11893        -0.042826     -0.095356     -1.920102
O       5.82925      5.79460      9.25860         0.126025     -0.023955     -0.989900
O       5.66677      9.67302      0.64098         0.048598     -0.396628     -1.254533
O       6.14988      9.59310     13.72278        -0.001629     -0.085526     -0.669867
O       6.01385      9.51896      4.87979        -0.221083     -0.213565      0.900736
O       6.04297      9.56189      9.29358        -0.345941     -0.009975     -1.360485
O       9.69073      2.04289      0.80122         0.066333     -0.478853     -2.610742
O       9.71738      2.09319     13.56330        -0.373893     -0.641071     -1.956060
O       9.68055     13.43276      0.68459        -0.127677      0.379545     -1.233186
O       9.78354     13.49297     13.66979        -0.214942     -0.229907     -1.723592
O       9.66021      2.05672      5.02818         0.137109     -0.343626     -1.388949
O       9.68387     13.39470      4.84534         0.485205      0.279857      0.085647
O       9.91392      1.86330      9.23108        -0.448900      0.070347     -0.921337
O       9.54208     13.35688      9.12311         0.497526      0.256051      0.271503
O       9.74099      5.83370      0.56304        -0.063149     -0.518457     -0.486495
O       9.78863      5.66943     13.56908        -0.343462      0.257622     -1.347480
O       9.72254      5.67551      5.03302         0.206502     -0.025973     -1.375588
O       9.93338      5.87679      9.22580        -0.336884     -0.360700     -0.269008
O       9.52492      9.69674      0.56405         0.641580     -0.393708      0.241420
O       9.68782      9.49536     13.68574        -0.228447      0.754385      0.422896
O       9.74137      9.53510      4.88699         0.034853      0.231147     -0.213527
O       9.76736      9.65289      9.27494         0.085869     -0.146530     -1.580829
O       3.87882      1.83069      2.69390        -0.087456      0.141862      0.093800
O       4.00879      1.87183     15.81101         0.124350      0.491687     -0.509015
O       3.88632     13.35354      2.68075         0.236396      0.384768      0.434892
O       4.03791     13.59710     15.88281         0.344853     -0.352382     -0.333815
O      15.37493      2.02858      2.73379        -0.640787     -0.674723      0.317284
O      15.57466      2.00706     15.88372         0.067185     -0.297091     -1.112066
O       0.08218     13.46227      2.63529        -0.642841     -0.590780      0.304986
O      15.56065     13.30547     15.79812         0.711921      0.815817      0.270171
O       3.92081      1.85593      7.06180        -0.027925      0.139173     -0.112037
O       3.96222     13.37777      7.05167        -1.211900     -0.479121     -0.172498
O       0.14198      1.75659      7.12347         0.741664      0.424812     -0.400642
O       0.11864     13.41674      7.13988         0.886732     -0.162948     -0.708961
O       3.88613      1.80249     11.54174         1.443081      0.582362     -0.636795
O       4.02716     13.25931     11.47766        -0.972855      0.335950      0.527692
O       0.19212      1.84177     11.63643        -0.446552     -0.055997     -0.400526
O      15.45651     13.23608     11.43850         0.119868      0.722286     -0.066711
O       3.89947      5.67708      2.75611         0.134815      0.278588     -0.503273
O       4.11699      5.88911     15.66583         0.152639     -0.198241      1.123184
O       0.06686      5.69762      2.74020         0.288814     -0.199417     -0.363247
O      15.46576      5.62132     15.86774         0.647563      0.655023     -0.482883
O       3.96460      5.91099      7.20578        -0.357498     -0.970728     -0.325983
O       0.17243      5.69905      7.17033        -0.976879      0.639476     -0.302522
O       3.88866      5.73514     11.53748         1.414047     -0.149740     -0.306683
O      15.46566      6.00787     11.29597         0.956433     -0.806423      0.482208
O       3.91567      9.51560      2.75383        -1.254896      0.285595      0.099843
O       4.12039      9.45078     15.84621         0.578955     -0.111239      0.203994
O       0.11133      9.49981      2.71091        -1.122318      0.326833     -0.451605
O       0.29249      9.58202     15.71559        -1.083626      0.290608      0.466669
O       3.97239      9.63898      6.91071         0.460955     -0.418155      0.555422
O       0.11425      9.63823      7.10546         0.392677     -0.409035      0.118212
O       4.03570      9.67737     11.59844         0.479255     -0.564136     -0.841642
O      15.43355      9.56179     11.69534         0.563527     -0.006676     -0.755342
O       7.71524      1.89110      2.80039         0.033748      0.086340      0.067293
O       7.95133      1.94592     15.88515        -0.831705      0.027555     -0.322491
O       7.75685     13.42998      2.87339        -0.069616      0.137786     -0.526357
O       7.90603     13.39457     15.82688        -0.414360      0.621813      0.320499
O       7.77021      2.02519      7.12841         0.242508     -0.479955     -0.185213
O       7.75270     13.46538      6.92152        -0.181504      0.135197      0.645690
O       7.73482      1.85151     11.28069         0.210921      0.174513     -0.087764
O       7.69905     13.51343     11.42338         1.555825     -0.104336     -0.189805
O       7.72423      5.80563      2.68484        -0.480350     -0.284731     -0.098119
O       7.99801      5.73209     15.97075        -0.845630      0.271796     -0.532388
O       7.83946      5.76080      7.21943        -0.265471     -0.169322      0.080720
O       7.84852      5.63107     11.27031         0.641348      0.500527      0.098875
O       7.73449      9.52520      2.72316         0.965389     -0.000593      0.010420
O       7.89931      9.77366     16.06772         0.116845     -0.910063     -1.084204
O       7.89860      9.54666      7.09481        -0.253940     -0.318113      0.307840
O       7.88049      9.48865     11.36484        -0.781712      0.303118      0.535218
O      11.57460      1.85774      2.88766        -0.402020      0.077727      0.070109
O      11.65542      1.90450     15.57804         1.393525      0.021375      0.724758
O      11.57587     13.53926      2.73886         0.347090     -0.456754      0.539486
O      11.70248     13.45234     15.77030         0.247804      0.383308      0.382349
O      11.70740      2.02460      7.13149        -0.516346     -0.682763     -0.309954
O      11.65810     13.49684      7.03659         0.184357     -0.352971     -0.050155
O      11.64882      1.95755     11.49555         0.181755     -0.169187     -0.230511
O      11.53821     13.32726     11.34994         0.737299      0.321345      0.053857
O      11.57612      5.85910      2.87105        -0.457781     -0.701252      0.148898
O      11.66008      5.73996     15.76843         0.947818      0.186007     -0.061425
O      11.65802      5.71022      7.19061         1.694591     -0.316296     -0.520752
O      11.66805      5.65665     11.50556         0.064312      0.412342     -0.472991
O      11.65243      9.61497      2.63208        -0.302750     -0.280981     -0.117904
O      11.67634      9.62715     15.90282         0.228649     -0.054888     -0.508972
O      11.66239      9.61734      7.00536        -0.546194      0.245263      0.360573
O      11.64895      9.64199     11.61358        -0.213428     -0.374846     -0.535526
O       1.99154      3.71716      2.70654         0.403285      2.127412      0.496938
O       2.29506      3.93531     15.71217        -0.573392     -2.735164      0.415373
O       1.94278     15.27961      2.71873         0.163868      1.075126      0.390517
O       2.15522      0.02378     15.85893        -0.925462      0.611441     -0.564036
O      13.35684      3.85048      2.82288         0.459851     -0.730033     -0.089119
O      13.64834      3.80992     15.78752        -0.577323     -0.276475     -0.114631
O      13.53846     15.35361      2.77871        -0.226588      0.062941      0.044442
O      13.66509      0.09531     15.64446         0.297844     -0.572872      0.752357
O       2.05708      3.80858      7.06555         0.181984     -0.442963     -0.298740
O       2.17849     15.24801      6.92999        -0.590262      0.132722     -0.032780
O      13.69555      3.81439      7.17398        -0.527909     -0.043595     -0.369957
O      13.59809     15.32273      7.19034        -0.404653     -0.434092     -0.545271
O       2.09325      3.80175     11.47852        -0.665205     -0.200831     -0.236411
O       2.04070     15.27857     11.50428         0.062753     -0.964802     -0.172956
O      13.75014      3.86461     11.46904        -0.256924     -0.310626     -0.377984
O      13.52318     15.24494     11.46805         0.166773      0.061451      0.056536
O       1.97927      7.62511      2.58234         0.365119     -0.594968      0.178985
O       2.07472      7.60514     15.74015        -0.090442      0.261979      0.640073
O      13.48383      7.62864      2.82951         0.278317      1.062706     -0.751075
O      13.64899      7.63212     15.68544        -0.080592     -0.000248      0.674227
O       2.07831      7.64143      7.06085        -0.434423      1.051081      0.279968
O      13.52478      7.68007      6.96489         0.130395     -0.795984      0.186640
O       2.15469      7.66268     11.50103        -0.313426      0.215788      0.041702
O      13.53879      7.67361     11.47106        -0.571857      0.077829      0.365267
O       2.01595     11.43425      2.56392        -0.242435      0.308201      0.417108
O       2.40141     11.44466     15.73688        -0.689703      1.298941      0.267923
O      13.51810     11.49806      2.66663         0.162676     -0.622612     -0.124212
O      13.66037     11.57368     15.75321        -0.081222     -1.571481      0.408884
O       2.05459     11.43467      7.04826         0.011772      1.295527      0.090591
O      13.55361     11.49937      7.11283         0.010842      0.500081     -0.353550
O       2.09679     11.42400     11.60154        -0.422565      0.834766      0.255301
O      13.52333     11.47921     11.46286        -0.008687      0.251083      0.299066
O       5.84048      3.80671      2.72586        -0.180756      0.762046      0.020712
O       6.01148      3.84760     15.80768        -0.152505     -0.043438      0.057320
O       5.80790      0.01089      2.86301         0.073391     -0.418390     -0.441335
O       6.00992      0.12789     15.86387         0.297069     -0.655327     -0.102158
O       5.76463      3.83429      7.19069         0.422583     -0.274131      0.158412
O       5.87836      0.00324      7.03377        -0.258321     -0.632483     -0.360781
O       5.90180      3.88984     11.43471        -0.653682     -1.428633     -0.541253
O       5.77689     15.27437     11.44048         0.181890      1.346562      0.065493
O       5.82982      7.68477      2.79615        -0.215883     -1.691310     -0.430753
O       6.13962      7.72916     15.97874        -0.027490     -0.480077     -0.347366
O       5.91686      7.66521      7.19246         0.247146      0.738946      0.086149
O       5.95361      7.63881     11.39999         0.014207      0.128596      0.165244
O       5.89090     11.45607      2.64672        -0.303492      1.132398      0.543825
O       5.95322     11.53613     15.83735        -0.460234      0.293480      0.251427
O       6.03783     11.43480      6.97805        -0.853725      0.803669      0.292055
O       6.02692     11.43106     11.33927         0.272076      0.790706      0.296391
O       9.64048      3.90084      2.76338         0.327863     -0.628517      0.321651
O       9.78355      3.86826     15.72430         0.387124     -0.280511      0.457958
O       9.60776     15.31942      2.85764         0.248947      1.478484      0.047857
O       9.79207      0.02799     15.83946         0.148421     -0.256221     -0.163105
O       9.72589      3.84773      7.13445         0.205897     -0.529220      0.630504
O       9.67639     15.33305      7.09111         0.515732      1.010650     -0.089252
O       9.78831      3.76424     11.28252        -0.411882      0.764015      0.165930
O       9.85136     15.33891     11.30688        -0.581772     -0.267512      0.255484
O       9.69123      7.61769      2.71720         0.029784      1.251951      0.201720
O       9.77505      7.68646     15.80257        -0.012007      0.763738     -0.089685
O       9.85462      7.59877      6.90044        -0.165739      2.057108      0.850798
O       9.75255      7.67476     11.45316         0.256557     -0.683869     -0.238201
O       9.68035     11.49819      2.77094         0.406729     -0.229342     -0.230706
O       9.81157     11.60225     15.99097        -0.169580     -0.721743     -1.195983
O       9.69132     11.57359      6.97581         0.271979     -1.080383      0.334305
O       9.69506     11.54910     11.46047        -0.495680     -0.136919     -0.006665
