  # total energy = -7883.77436209 
CRSYTAL
PRIMVEC
    15.3600000000000000    0.2300000000000000    0.0000000000000000
     0.0000000000000000   15.3600000000000000    0.0000000000000000
     0.0000000000000000    0.0000000000000000    17.440000000000000
PRESSURE
0.393841 0.683812 4.01601 -0.144608 -0.091471 -1.53922
PRIMCOORD
320 1
Pb       3.86091      3.86938      4.28558        -0.534234      0.181795     -0.118878
Pb       3.81543      3.88949     17.38172        -0.309484      0.472688     -0.330087
Pb       3.77858     15.38170      4.38118         0.158820      0.211006     -0.266368
Pb       3.80409     15.35744      0.00069        -0.035549      0.152425     -0.784079
Pb       0.01221      3.78297      4.26567         0.265650      0.373234     -0.349355
Pb      15.34068      4.01759     17.38399         0.197887      0.224042     -0.246217
Pb      15.32511     15.56617      4.34180         0.353479      0.274172      0.223488
Pb      15.31593     15.53625     17.39368         0.391413      0.082285     -0.192645
Pb       3.84874      3.87709      8.67570         0.059998     -0.200437     -0.411215
Pb       3.81623      0.06890      8.72556         0.094468     -0.240457     -0.340630
Pb       0.01343      3.94549      8.70879        -0.139039     -0.410520      0.037237
Pb       0.00657     15.30885      8.69415        -0.029488     -0.096556     -0.290882
Pb       3.88882      3.91051     13.02165        -0.458073     -0.209202      0.381993
Pb       3.81682      0.08468     13.06323        -0.102352     -0.001582     -0.130332
Pb      15.34828      4.08888     13.01668        -0.369965     -0.193882      0.003224
Pb       0.00213      0.00700     13.04123        -0.707794      0.147067      0.239869
Pb       3.84478      7.71843      4.34730        -0.106992      0.032945     -0.857026
Pb       3.83456      7.76180     17.38004        -0.219792     -0.649252      0.077357
Pb      15.29267      7.85369      4.32183         0.116837     -0.108877     -0.394918
Pb      15.32553      7.90537     17.40272         0.104891      0.099269     -0.591388
Pb       3.78959      7.69797      8.66506         0.213728      0.320365     -0.463251
Pb      15.29512      7.91739      8.71694         0.390877      0.067845     -0.428505
Pb       3.81145      7.72239     12.99896         0.276229      0.107086     -0.100650
Pb      15.35276      7.89935     13.02875         0.004201     -0.603027     -0.400731
Pb       3.81819     11.56380      4.28154         0.154139     -0.257462     -0.325192
Pb       3.81184     11.57923     17.41135        -0.028919      0.037033     -0.660575
Pb       0.00757     11.53824      4.28098        -0.461657     -0.559217     -0.098869
Pb       0.03440     11.50357      0.01836        -0.402998     -0.150545     -0.724154
Pb       3.78383     11.55970      8.64438        -0.204269      0.018500     -0.020514
Pb      15.32333     11.75619      8.64795         0.325278     -0.126547     -0.340833
Pb       3.80084     11.53897     13.00141         0.261489      0.054000     -0.131522
Pb       0.01164     11.44837     13.03804        -0.252704      0.563541     -0.166635
Pb       7.61151      3.90546      4.33238         0.537875     -0.060167     -0.186490
Pb       7.64395      3.94685     17.38390         0.183756      0.127779     -0.032747
Pb       7.58996     15.44783      4.34715         0.347508      0.026228     -0.456718
Pb       7.68170      0.14034     17.40092         0.156642     -0.312361     -0.379134
Pb       7.64150      3.97850      8.66486         0.105197     -0.030597     -0.434787
Pb       7.66359     15.41923      8.68445        -0.236510      0.499578     -0.036926
Pb       7.66476      3.90717     13.00611         0.078161     -0.044158      0.468194
Pb       7.64224     15.37337     13.06655         0.445249      0.274363     -0.097350
Pb       7.69689      7.74397      4.37037        -0.030120      0.277535     -0.696044
Pb       7.71246      7.80889      0.00966        -0.427410     -0.524666     -0.194945
Pb       7.72124      7.79392      8.67789        -0.312842      0.101215     -0.565359
Pb       7.65839      7.78172     13.03518        -0.629472      0.261712     -0.378946
Pb       7.68463     11.70639      4.36060         0.070514     -0.430496     -0.583053
Pb       7.67691     11.58675     17.43928        -0.049536      0.247786     -0.637231
Pb       7.62958     11.65849      8.74277         0.034913     -0.330196     -0.522945
Pb       7.68525     11.62363     13.11915        -0.095407     -0.251634     -1.007237
Pb      11.49352      4.01558      4.36926        -0.113866     -0.149299     -0.599214
Pb      11.49748      3.96891     17.43300        -0.138583     -0.066111     -0.379133
Pb      11.53610      0.17885      4.28200        -0.729720     -0.206800     -0.044547
Pb      11.47300     15.44415      0.02017        -0.345700      0.149435     -0.819458
Pb      11.49062      3.98442      8.70431        -0.013386      0.169618     -0.608609
Pb      11.51613     15.51469      8.69801         0.190864     -0.062628     -0.443771
Pb      11.50792      4.00429     13.06570         0.207142     -0.289834     -0.168985
Pb      11.54759     15.44507     13.01926        -0.094941      0.419451     -0.007855
Pb      11.44966      7.88999      4.29448         0.269001     -0.339149     -0.302149
Pb      11.52210      7.80585     17.40871         0.138739      0.185948     -0.226344
Pb      11.51403      7.81474      8.65751        -0.614532      0.029691     -0.305074
Pb      11.49822      7.79717     13.06429         0.221912      0.009888     -0.380158
Pb      11.55068     11.62591      4.30507        -0.099972      0.335467     -0.448147
Pb      11.54257     11.68562     17.37663         0.101997     -0.435245     -0.378144
Pb      11.47544     11.68038      8.60785        -0.120238      0.069404      0.037987
Pb      11.52412     11.64107     13.03102        -0.135361      0.111058     -0.317224
Ti       1.94750      1.92646      2.28138        -0.362122      0.468717      1.838528
Ti       1.84380      1.96536     15.28528         0.393243      0.044640      1.158254
Ti       1.90845     13.51343      2.38357         0.195368     -0.414539     -0.462320
Ti       1.83376     13.49955     15.33442         0.568131     -0.329536      1.160037
Ti      13.48951      2.10458      2.26799        -0.737615      0.574877      1.489769
Ti      13.39453      2.09291     15.39199         0.487479      0.652895     -1.113742
Ti      13.48190     13.73116      2.33746        -0.913440     -2.283232     -0.976573
Ti      13.39832     13.66806     15.39615        -0.325405     -1.353578     -0.503402
Ti       1.88328      1.91673      6.67833         0.463636     -0.272374      0.183501
Ti       1.89581     13.47549      6.61427         0.173695     -0.753628      1.070170
Ti      13.47285      2.13037      6.64637        -0.398288     -0.537389      0.850380
Ti      13.39337     13.62201      6.68302         0.152733      0.014065      1.957982
Ti       1.87321      1.84422     11.04989         0.226581      0.815367      2.541015
Ti       1.90984     13.47293     11.06471        -0.643041     -0.804871     -0.445224
Ti      13.42877      2.10783     10.96187         0.166265      0.263956      3.040199
Ti      13.38845     13.62950     10.96300         0.373043     -0.144271      2.566481
Ti       1.92084      5.83346      2.23875         0.091728     -0.403705      1.434682
Ti       1.84008      5.77236     15.30401         0.502220      0.293699      2.723147
Ti      13.41046      5.88329      2.26497         0.569160      0.771446      0.567779
Ti      13.35697      5.91953     15.37850         0.708833      0.156439      1.039466
Ti       1.87177      5.78702      6.60705        -0.023163      0.195199      0.209302
Ti      13.43363      5.94021      6.63840        -1.198633      0.307086      0.304727
Ti       1.97067      5.65882     11.05116        -1.258347      1.442088      0.968259
Ti      13.40843      5.93868     10.98753         0.445603     -0.135230      2.537518
Ti       1.88356      9.65144      2.27048        -0.018834     -1.167010      2.383688
Ti       1.95483      9.64155     15.29873        -1.107618     -0.624453      1.356094
Ti      13.41886      9.72145      2.30905        -0.185300      0.556644      0.371405
Ti      13.39240      9.77417     15.36638         0.429208     -0.178879      2.767803
Ti       1.87111      9.65596      6.56434         0.047738      0.324648      2.344799
Ti      13.33378      9.75453      6.64689         0.829395      0.716618     -1.475799
Ti       1.93803      9.57586     11.00907         0.370233     -0.110766      1.982515
Ti      13.45115      9.76609     11.07760        -0.830202     -0.024683      2.060593
Ti       5.73779      1.93954      2.30207         0.359180      0.099452      1.618397
Ti       5.73415      1.96923     15.42649        -0.296121      0.133477      0.714776
Ti       5.77636     13.46744      2.24774        -0.194331      0.164909      2.901310
Ti       5.70450     13.50385     15.32370         0.730716     -0.217933      1.184442
Ti       5.71862      2.00322      6.65418         0.114261     -0.545418      1.572044
Ti       5.70807     13.58737      6.71433        -0.071768     -0.664520      1.136783
Ti       5.80799      1.98445     11.04710        -1.161647     -0.066102      0.065569
Ti       5.73052     13.59698     11.02899        -0.087743     -1.306912     -0.012941
Ti       5.77501      5.77374      2.32319        -1.046890      0.804881     -0.276596
Ti       5.65408      5.80472     15.35458        -0.087127      0.660844      1.090886
Ti       5.69366      5.81985      6.55941         0.914428      0.381716      2.292897
Ti       5.74204      5.81348     11.00098        -0.114387      1.018186      1.117764
Ti       5.75207      9.62820      2.33471         0.220594     -0.013589      1.251074
Ti       5.72129      9.64682     15.40715         0.311350      0.067921     -0.024052
Ti       5.70988      9.73443      6.67095         0.083158     -0.750048      1.756593
Ti       5.72137      9.68571     10.92830         0.264705     -0.138075      1.415234
Ti       9.60665      2.04645      2.30132        -0.192796     -0.393368      1.356726
Ti       9.56214      2.02842     15.40498         0.129052     -0.169714      1.003079
Ti       9.57420     13.55195      2.26576         0.447052     -0.041192      2.343411
Ti       9.53097     13.47899     15.36266        -0.080637      0.905337      3.307544
Ti       9.57344      2.03375      6.67753         0.138173      0.386026      1.890552
Ti       9.51963     13.65926      6.65159         1.177752     -0.908968     -0.688078
Ti       9.54021      2.04016     11.01880         0.506066     -0.353946      2.560349
Ti       9.56360     13.60995     10.95412         0.036866     -0.829438      2.458652
Ti       9.58710      5.81679      2.26732        -0.143128     -0.006043      1.083881
Ti       9.51412      5.82898     15.34974         0.267643     -0.019135      3.701396
Ti       9.58402      5.89648      6.59802        -0.084249     -0.220439      1.686183
Ti       9.54879      5.87308     11.01160         0.480125     -0.075615      0.903724
Ti       9.59261      9.70609      2.31677        -0.688098      0.040850      3.218217
Ti       9.52818      9.66227     15.38776         0.985469      0.117466      1.091757
Ti       9.54668      9.77593      6.55244        -0.299039     -0.226044      1.338634
Ti       9.55656      9.67502     11.03033         0.188396      1.069045      0.286268
O       1.87654      1.86014      0.57435         0.240526     -0.087612     -0.898670
O       1.84472      1.89635     13.55651         0.141874      0.106405     -0.372265
O       1.78683     13.52608      0.61947         0.427648     -0.048002     -0.426493
O       1.99254     13.42629     13.62477        -0.293110      0.025554     -0.648071
O      13.46615      2.20190      0.55745         0.075465     -0.649335     -0.799932
O      13.54252      2.21819     13.58460        -0.760717      0.007289      1.701839
O      13.51985     13.75805      0.53586        -0.581455     -0.387992      0.503608
O      13.38410     13.45502     13.64681        -0.146685      0.573101      0.612654
O       1.96885      1.87067      4.95071        -0.444778      0.192232     -0.688292
O       1.91968     13.47499      4.85306         0.023081     -0.174021     -0.754324
O      13.44552      2.11787      4.87711         0.024075     -0.077252      0.458223
O      13.45224     13.67578      4.99312        -0.006092     -0.087045     -2.129791
O       1.77486      1.86376      9.37379         0.116066      0.085544     -2.669415
O       1.81938     13.41934      9.26148         0.266630      0.078799      1.200590
O      13.51362      2.01827      9.27239        -0.084203      0.067603     -1.435342
O      13.41003     13.63738      9.24819         0.126273     -0.021723     -1.089066
O       1.93793      5.80061      0.52267        -0.184236     -0.131909     -1.193488
O       2.01529      5.70696     13.63519         0.002507      0.304413     -3.097712
O      13.51116      5.84569      0.53366        -0.154351      0.239323     -0.625955
O      13.38691      5.92323     13.65618         0.037769     -0.090018     -0.895088
O       1.88114      5.83371      4.85970         0.172524     -0.197372      0.969879
O      13.36513      6.00650      4.91435         0.118225     -0.343466     -0.759416
O       1.73267      5.82746      9.33846         0.344416     -0.529838     -1.447356
O      13.56718      5.98279      9.28583        -0.379410      0.298205     -2.051706
O       1.61625      9.54054      0.60369         0.690005      0.439294     -1.967145
O       2.02539      9.70487     13.56917        -0.347937     -0.230744     -0.578921
O      13.41352      9.68501      0.55321         0.096734      0.452915      0.068779
O      13.32153      9.74764     13.67254         0.142314     -0.077070     -2.389068
O       2.00314      9.73217      4.88039        -0.099668     -0.256548     -1.918063
O      13.32794      9.81855      4.83788        -0.083058     -0.334214      0.981007
O       1.96353      9.71276      9.32602        -0.296892     -0.196132     -1.897188
O      13.47508      9.77912      9.40483        -0.157140     -0.223462     -2.626223
O       5.70675      2.05703      0.59704        -0.121411     -0.284103     -1.215073
O       5.83950      2.12133     13.71621        -0.131289     -0.498794     -1.072147
O       5.87477     13.47669      0.58074        -0.298355     -0.170490     -2.426183
O       5.69338     13.56687     13.58869         0.245763     -0.049401     -0.902957
O       5.69234      1.85748      4.95493         0.227474      0.120916     -1.695689
O       5.84878     13.52522      4.99511        -0.440072      0.109018     -1.154185
O       5.67175      2.04449      9.29653         0.441578     -0.091214      0.017672
O       5.64951     13.64836      9.26290         0.277046     -0.093887      0.246634
O       5.56393      5.81033      0.55120         0.600339     -0.274232      0.771318
O       5.52438      5.98919     13.60329         0.746156     -0.735001      0.309245
O       5.71530      5.82403      4.84332        -0.055603     -0.003416     -0.631632
O       5.68895      5.79537      9.27162        -0.170252     -0.162704     -0.523908
O       5.61297      9.62670      0.62846         0.476502      0.314520     -1.727265
O       5.80741      9.61221     13.67576        -0.116330      0.078554     -0.284714
O       5.61692      9.65179      4.97517         0.313157      0.194096     -1.905996
O       5.72800      9.51580      9.19425         0.124246      0.310810     -0.327492
O       9.56341      2.07118      0.59676         0.032884     -0.152741     -1.679520
O       9.49641      2.20988     13.70193         0.056093     -0.275393     -1.407603
O       9.52448     13.56446      0.54699         0.074354     -0.054775     -0.895249
O       9.51607     13.59035     13.71208         0.003641     -0.178318     -3.370649
O       9.70488      2.08794      4.99505        -0.027267     -0.127333     -1.691135
O       9.70821     13.67670      4.88707        -0.734293      0.071659      0.642114
O       9.26633      2.03940      9.35983         0.796488      0.015426     -1.919714
O       9.54026     13.60446      9.26574         0.133250     -0.185731     -2.549044
O       9.48690      5.69373      0.53707         0.261241      0.451137      0.210103
O       9.45845      5.91128     13.68517         0.053695     -0.022828     -3.096760
O       9.54851      5.76320      4.88396         0.365660      0.149341     -0.921405
O       9.66666      5.92094      9.29819        -0.039116     -0.197925     -0.859105
O       9.51709      9.70633      0.65940        -0.075707     -0.089049     -3.676372
O       9.57927      9.68614     13.64855        -0.301910     -0.155666     -0.479360
O       9.65073      9.63993      4.81320        -0.226295      0.247539      0.186170
O       9.47600      9.74444      9.27367         0.152680     -0.003099      0.094991
O       3.82350      1.97365      2.83181         0.153248     -0.387774     -0.562953
O       3.76755      1.90462     15.65416         0.354574     -0.114358      0.610044
O       3.85144     13.52189      2.67292        -0.101145     -0.373312      0.000074
O       3.83572     13.46082     15.84828        -0.697525      0.089755      0.227925
O       0.04087      1.80987      2.83904        -0.308734      0.510795     -0.542843
O      15.31376      2.05391     15.84388        -0.178213      0.589689     -0.151204
O      15.34372     13.61395      2.72731        -0.124056      0.270663      0.473814
O      15.28593     13.58429     15.84394         0.319240      0.215264     -0.398513
O       3.81776      1.91446      6.98783        -0.585506      0.562298      0.913048
O       3.80503     13.42805      7.19026        -0.010998      0.360050     -0.631056
O       0.00016      1.77199      7.13269        -0.678442      0.483855     -0.440129
O       0.04395     13.37051      7.11820        -0.880519      0.144770     -0.291163
O       3.81539      1.80880     11.37966         0.550843      0.506998      0.311958
O       3.78300     13.60988     11.47861         0.359046     -0.213393     -0.261272
O       0.00683      1.92445     11.58955        -0.516594     -0.234687     -0.901377
O      15.27525     13.67330     11.63900         0.391618     -0.502375     -1.088326
O       3.82583      5.78944      2.74194         0.670965     -0.251338      0.209947
O       3.75400      5.75455     15.80637         1.309879      0.039489      0.124841
O       0.03312      5.78382      2.81201        -0.848814     -0.054927     -0.340246
O       0.00495      5.79202     15.60265        -1.005118     -0.237165      0.624109
O       3.81369      5.67304      7.10031        -0.831535      0.418313     -0.378997
O      15.27014      6.02518      6.99549         1.284682     -0.018249      0.380809
O       3.82085      5.81329     11.46076         0.419035     -0.241585     -0.335140
O      15.34703      6.06162     11.48293         0.278663     -0.206008      0.188822
O       3.81100      9.63212      2.69215         0.084307      0.161555      0.207186
O       3.81543      9.70177     15.78054         0.022570      0.067959      0.330638
O      15.34753      9.67594      2.79068        -0.129800      0.637452     -0.051777
O      15.30371      9.83938     15.78699         0.537584     -0.247316     -0.298017
O       3.82243      9.67568      7.06069        -0.412002     -0.233265      0.266376
O      15.30147      9.88036      6.95910        -0.182777     -0.295626      0.304528
O       3.87098      9.67058     11.40931        -0.253708     -0.018710      0.006870
O       0.01894      9.48274     11.42767        -0.399658      0.454822      0.316393
O       7.69615      1.98951      2.78374        -0.896355     -0.013151     -0.039229
O       7.66683      2.02498     15.85104        -0.618112     -0.129438      0.254814
O       7.67994     13.52965      2.81781         0.186554      0.167551     -0.262046
O       7.62793     13.45900     15.79274        -0.147373      0.399867      0.069524
O       7.64449      1.93729      7.08754         0.339136      0.402287     -0.217103
O       7.63745     13.65813      7.06853         0.257823     -0.400341      0.207227
O       7.65057      1.95475     11.54463        -0.021062      0.354001     -0.027354
O       7.67125     13.56504     11.30019        -0.721881      0.130683      0.613227
O       7.65899      5.75585      2.76744         0.352015      0.193191     -0.204692
O       7.63535      5.87385     15.81641        -0.815795     -0.245065     -0.191178
O       7.68506      5.76994      7.00268        -0.367368      0.162478      0.109992
O       7.62431      5.93534     11.28577         0.360050     -0.178666      0.465539
O       7.69531      9.64062      2.81089        -0.784799      0.268485      0.018932
O       7.65627      9.58998     15.81859        -0.058760      0.127677      0.253607
O       7.64317      9.63085      7.13018         0.306188      0.430434     -0.465312
O       7.62414      9.73239     11.46272         0.523614     -0.253566      0.046429
O      11.52578      2.12172      2.67840         1.086742     -0.288048      0.101648
O      11.47318      1.97870     15.85132         0.527249      0.557446      0.015152
O      11.51571     13.59353      2.85339         0.361044      0.172146     -1.003476
O      11.43169     13.52585     15.83075         0.749367      0.434318      0.259333
O      11.52917      2.01519      7.22675         0.343547      0.195700     -0.325576
O      11.47960     13.63799      7.16791        -0.014268     -0.266050     -0.146772
O      11.49048      2.11340     11.49933        -0.033524      0.160029     -0.726991
O      11.49635     13.67604     11.51510         0.298359     -0.524757     -0.603656
O      11.51217      5.86182      2.63624        -0.339958     -0.369940      0.112344
O      11.46119      5.80906     15.62058         0.272508      0.154101      0.689750
O      11.47947      5.93237      7.10893         0.442881     -0.077376      0.177105
O      11.53125      5.80777     11.54946        -0.854758      0.132002     -0.554977
O      11.46171      9.71437      2.70527         0.988931      0.193608      0.103502
O      11.46272      9.72037     15.88114        -0.545137     -0.180600      0.019042
O      11.42072      9.80818      7.13576         0.307124     -0.176553     -0.132694
O      11.47161      9.72087     11.46457        -0.022540      0.311520      0.024106
O       1.91216      3.87070      2.70162        -0.145319     -0.870998      0.004859
O       1.91494      3.86276     15.72569        -0.415346     -0.838182      0.219467
O       1.89324     15.35622      2.76504         0.204334      0.511469      0.157982
O       1.76091     15.38480     15.69631         0.694433     -0.767077      0.345538
O      13.53629      4.01728      2.63827         0.027821     -0.499674      0.557888
O      13.48036      4.00554     15.99058        -0.475175     -0.097957     -1.031000
O      13.50449     15.53256      2.64003        -0.323422      0.952661      0.493113
O      13.35437      0.20041     15.67232         0.171571     -0.603914      0.421124
O       1.77696      3.80573      7.16373         0.435868      0.882297     -0.464451
O       1.96366     15.32034      6.98019        -0.246812      0.536171      0.506944
O      13.38589      4.05145      7.06368         0.257446     -0.843790      0.051167
O      13.45395     15.49742      7.13899        -0.155738      0.552452     -0.217705
O       1.94715      3.83392     11.49591         0.010258     -0.384683     -0.451920
O       1.82317     15.33567     11.49221         0.032660     -0.045643     -0.087305
O      13.53996      4.05973     11.34938        -0.352738     -0.757620      0.012332
O      13.41263      0.21116     11.54168         0.055854     -0.148128     -0.700683
O       1.99787      7.65273      2.66029        -0.267892      1.239415      0.405574
O       1.92996      7.70156     15.77469        -0.020745      0.824571     -0.320544
O      13.33801      7.82608      2.58459         0.344983     -0.028907      0.666579
O      13.36084      7.82369     15.85336        -0.020804     -0.170561     -0.174342
O       1.84303      7.75057      7.06895         0.404905     -1.135108     -0.096674
O      13.32160      7.91235      6.97341         0.262264     -0.434537      0.762001
O       1.98008      7.68066     11.34523        -0.099911      0.159723      0.438241
O      13.32096      7.80625     11.45872         0.350368      0.732719      0.250608
O       1.89321     11.54830      2.64839         0.015499     -0.086645      0.247270
O       1.89272     11.52653     15.76053        -0.020107      0.361108      0.507469
O      13.42472     11.68861      2.76938         0.187952      0.175310     -0.303224
O      13.32164     11.62740     15.78208         0.136942      1.043565      0.457342
O       1.91442     11.53140      7.04607         0.019648      0.021325      0.109676
O      13.37814     11.67084      7.10904        -0.172073      0.410941      0.145667
O       1.94141     11.55495     11.53805        -0.332010      0.037223     -0.380718
O      13.35512     11.70596     11.39555         0.328894     -0.095928      0.141615
O       5.76516      3.87975      2.86639        -0.235589     -0.288781     -0.583656
O       5.74510      3.89318     15.88988        -0.350818      0.199704     -0.536366
O       5.74095     15.39645      2.62729         0.127659      0.400784      0.317094
O       5.71986     15.38815     15.87594         0.197331      0.443526     -0.118803
O       5.76381      3.86442      7.07274        -0.257958      0.692269     -0.002788
O       5.67521      0.08647      7.15343        -0.007778     -0.011470      0.001655
O       5.73537      3.93001     11.52453         0.107356     -0.470448     -0.588432
O       5.82383      0.08962     11.54094        -0.409873      0.262166     -0.180473
O       5.83517      7.73108      2.75004        -0.436103     -0.416349      0.173603
O       5.69533      7.73337     15.92124         0.002340     -0.111710     -0.487856
O       5.70023      7.69540      7.07950        -0.084209     -0.396495     -0.291894
O       5.77343      7.78039     11.55124        -0.401116     -0.249460     -0.756560
O       5.78471     11.56615      2.68700        -0.044821      0.246970      0.351804
O       5.82847     11.59443     15.70921        -0.534048     -0.472657      0.581163
O       5.76621     11.61629      7.12052         0.227766      0.148459      0.080211
O       5.71364     11.62645     11.30038         0.105965      0.172291      0.205420
O       9.59806      3.88367      2.82076        -0.062834      1.255623     -0.052050
O       9.59630      3.93934     15.89979        -0.313633     -0.002401     -0.354064
O       9.63745      0.14941      2.69166        -0.044131     -0.703168      0.044077
O       9.49930     15.46032     15.76895         0.215353     -0.093985      0.438192
O       9.72451      3.95005      7.19322        -0.785291     -0.076785     -0.307628
O       9.61038     15.49632      7.10968        -0.053964      0.336820      0.247129
O       9.42510      3.97293     11.44149         0.534560     -0.190505     -0.135317
O       9.59478     15.45490     11.45241        -0.163200      0.972509      0.184478
O       9.58794      7.77341      2.79495        -0.187480     -1.136399     -0.476126
O       9.58446      7.71108     16.03450         0.033458      0.670517     -1.002430
O       9.58037      7.82128      7.01805         0.063048     -0.252588      0.005134
O       9.67221      7.78074     11.35229        -0.556574      0.066678      0.452077
O       9.56199     11.61177      2.68835         0.040328      1.087622      0.195842
O       9.51188     11.58429     15.76481         0.050633     -0.572427      0.287123
O       9.52062     11.67829      6.85686        -0.148075      0.097643      0.701767
O       9.52447     11.70709     11.46279         0.350274     -0.617029      0.058958
