  # total energy = -7879.12560667 
CRSYTAL
PRIMVEC
    15.3600000000000000    0.2300000000000000    0.0000000000000000
     0.0000000000000000   15.3600000000000000    0.0000000000000000
     0.0000000000000000    0.0000000000000000    17.440000000000000
PRESSURE
1.11464 0.994263 -2.90724 -0.164499 0.076254 -1.49964
PRIMCOORD
320 1
Pb       3.85672      3.84429      4.25166         0.026409     -0.140682     -0.372168
Pb       3.72078      3.95310     17.32544         0.623572     -0.222856     -0.083751
Pb       3.70215     15.40166      4.54338         0.184590     -0.227219     -1.041827
Pb       3.70109     15.31339     17.41922         0.135118      0.313698     -0.188508
Pb       0.15505      3.75804      4.21318        -0.990727     -0.132629      0.020127
Pb       0.02100      3.71883     17.28044        -0.501853     -0.106118      0.228000
Pb      15.27218      0.30981      4.44353         0.000644     -0.173028     -1.227214
Pb      15.26254     15.47989     17.30826         0.219910      0.130350      0.473314
Pb       3.86461      3.93946      8.65121         0.063960      0.202271      0.213141
Pb       3.71256      0.18590      8.85359         0.386252     -0.945635     -0.415522
Pb       0.09570      4.25621      8.81398        -0.509520     -1.194272      0.431154
Pb       0.06996     15.29658      8.73350        -0.525899     -0.057621      0.325554
Pb       4.07812      4.00825     13.03517        -0.389087     -0.371883      0.251239
Pb       3.82405      0.20909     13.13176         0.104096      0.094193     -0.251242
Pb      15.33443      4.13681     13.00777        -0.100491     -0.411142     -0.034426
Pb      15.32252      0.30082     13.10298        -0.044959      0.456524     -0.222203
Pb       3.89813      7.73929      4.37093        -0.281584     -0.451582      0.305112
Pb       3.79098      7.82012     17.39956        -0.022117     -0.091505     -0.218845
Pb      15.17110      7.69474      4.30269         0.590994      0.185648     -0.163712
Pb      15.34359      7.90141     17.32115         0.070408     -0.106484     -0.037886
Pb       3.68252      7.70078      8.54366         0.564215      0.498131     -0.118195
Pb      15.15828      8.06939      8.69381         0.384313     -0.766520     -0.417841
Pb       3.89464      7.78161     12.89871        -0.230053      0.156468      0.574313
Pb       0.01534      7.70225     13.03584        -0.732109     -0.128211     -0.080136
Pb       3.87984     11.53162      4.20913        -0.095397      0.356458      0.304885
Pb       3.81382     11.61188     17.41080         0.264358     -0.335443     -0.393785
Pb       0.04273     11.56029      4.24314        -0.184745      0.001920     -0.045488
Pb       0.18709     11.49493      0.09609        -0.650022      0.063286     -0.567842
Pb       3.61026     11.55821      8.60031         0.724009      0.062867      0.119307
Pb      15.24270     11.77583      8.51799         0.068191      0.397067      0.235068
Pb       3.86716     11.50013     12.93643         0.201430     -0.183235     -0.267467
Pb       0.02814     11.37047     13.06339        -0.569690     -0.098030     -0.439595
Pb       7.53297      3.76083      4.35574         0.309271     -0.151635     -0.024635
Pb       7.51568      3.98933     17.42160         0.579601      0.000105     -0.361390
Pb       7.41749     15.45822      4.42552         0.212095      0.449065     -0.166322
Pb       7.68427      0.19585     17.42673        -0.024454     -0.140692     -0.541985
Pb       7.61382      4.03796      8.60595         0.362558     -0.236757      0.062221
Pb       7.68940      0.11861      8.77203         0.022777     -0.204421     -0.562619
Pb       7.70324      3.85053     13.01245        -0.396480     -0.026630      0.153582
Pb       7.62917     15.20225     13.18014         0.348123      0.564070     -0.176961
Pb       7.73023      7.64118      4.44228        -0.188879      0.968724     -0.120639
Pb       7.77972      7.79934      0.22448         0.555266     -0.091256     -0.747620
Pb       7.83092      7.91673      8.58952        -0.551791     -0.333435     -0.246085
Pb       7.59943      7.81683     13.01768         0.603495     -0.406905      0.084522
Pb       7.70511     11.91115      4.50091        -0.164295     -0.638229     -1.114265
Pb       7.67088     11.52234      0.10863         0.486446      0.107678     -0.815059
Pb       7.56776     11.76378      8.82232        -0.263396     -0.396439     -0.448208
Pb       7.74715     11.57552     13.23040        -0.097544      0.028619     -0.415104
Pb      11.50962      4.01083      4.42237         0.020091     -0.364680     -0.673366
Pb      11.43457      3.86871      0.04730        -0.254172      0.183962     -0.740578
Pb      11.60151      0.27949      4.27866        -0.144275     -0.042770     -0.317296
Pb      11.37114     15.27582      0.08199         0.529233      0.511765     -0.411362
Pb      11.49664      3.97180      8.77467         0.159069     -0.221346     -0.447007
Pb      11.61068      0.18320      8.76921         0.029077     -0.070181     -0.173964
Pb      11.47425      3.90583     13.11137         0.409148     -0.168511     -0.086283
Pb      11.59591     15.31806     13.01327        -0.331293      0.378135     -0.035150
Pb      11.41084      7.90649      4.22265         0.159789     -0.060246     -0.050326
Pb      11.56337      7.69005      0.02449        -0.470044      0.314602     -0.242855
Pb      11.51235      7.83200      8.55943        -0.163258     -0.059279     -0.158935
Pb      11.41752      7.71090     13.13428         0.235548     -0.035899     -0.423460
Pb      11.68115     11.62347      4.21553        -0.470486      0.080197     -0.085226
Pb      11.58543     11.58856     17.42011        -0.263510      0.190836     -0.211343
Pb      11.36915     11.67100      8.51755         0.891917      0.283770      0.429515
Pb      11.53354     11.55338     13.04592         0.022505      0.328718     -0.238030
Ti       1.86551      1.86734      2.17262        -0.282150     -1.244608     -0.568751
Ti       1.95354      1.83901     15.43768        -0.624555      1.331887     -0.912453
Ti       1.86375     13.40867      2.27337        -0.024489      1.428711     -0.759295
Ti       2.00459     13.38885     15.24336        -0.970853      0.532058      0.414591
Ti      13.36337      2.16861      2.17525        -0.076823     -1.159629      0.466933
Ti      13.32515      1.96660     15.47741         0.300977      0.536794     -2.053999
Ti      13.37365     13.58456      2.23782         0.794723      0.958176     -0.462006
Ti      13.51649     13.55124     15.38868        -0.377240     -0.315416     -0.205046
Ti       1.81231      1.97606      6.82536         0.587238      0.066379     -0.757920
Ti       1.83867     13.57291      6.69598         0.617944     -1.189129     -0.308383
Ti      13.45673      2.12900      6.77102        -0.640206      0.427196     -1.013869
Ti      13.37024     13.67433      6.51950         1.163659      0.221872      0.400861
Ti       2.01584      2.04250     10.98343        -1.840197      0.108632      0.415437
Ti       1.86559     13.49781     11.02164         0.677380      0.497719     -1.619841
Ti      13.40886      2.05257     11.05967         0.370006      0.037011      1.093428
Ti      13.54263     13.57420     10.97766        -1.917165     -0.368794     -0.326865
Ti       1.95743      5.70915      2.33036        -0.846535      0.542843     -0.866515
Ti       1.96010      5.71851     15.41531        -0.073254      0.796115     -0.957580
Ti      13.36613      5.87472      2.28471         0.033892     -0.054257     -0.230696
Ti      13.46218      5.88987     15.42658        -0.615612     -0.077826     -1.522327
Ti       1.90993      5.71110      6.59369        -0.297689      1.521544     -1.142675
Ti      13.41328      5.85277      6.64039        -0.058116      0.608537      0.030624
Ti       1.93011      5.89762     11.05119        -0.186203     -1.334862     -1.248492
Ti      13.29812      5.91553     11.00515         0.478049      0.535912      0.610832
Ti       1.92070      9.50839      2.36381        -0.895551     -0.394685     -1.398056
Ti       1.87129      9.60709     15.39260         0.241750     -0.670070      0.628820
Ti      13.51705      9.71823      2.19300        -0.904759      0.767675     -0.401589
Ti      13.42835      9.82538     15.37851         0.424263     -1.222737      0.512682
Ti       1.85506      9.63514      6.57779         0.712286     -0.608371      0.176731
Ti      13.48613      9.81857      6.49785        -0.747792     -0.215594     -0.006558
Ti       1.81132      9.62321     10.78099         0.446702     -0.315065      1.825393
Ti      13.31615      9.75909     10.89234         0.794196     -0.132829      2.172524
Ti       5.66288      1.99953      2.21498        -0.032708     -0.241362      0.372428
Ti       5.74666      1.96448     15.41061         0.249680      0.521391     -1.367846
Ti       5.62059     13.61396      2.26602         0.869413     -0.091521      1.377748
Ti       5.81530     13.50703     15.52295         0.310855      0.029678     -1.256807
Ti       5.69224      1.96029      6.82614         1.249698     -0.771018     -0.978876
Ti       5.67680     13.46397      6.69637        -0.061715      0.738238     -0.444858
Ti       5.76017      1.91454     10.92839         0.395345      0.493849      1.113652
Ti       5.75839     13.44274     11.08440        -0.342663     -0.319892     -1.458025
Ti       5.73211      5.89655      2.29412         0.367220     -0.363998     -1.485871
Ti       5.89005      5.91419     15.42746        -0.173186     -0.586984     -1.272762
Ti       5.76352      5.88871      6.69880         1.059072      0.678413     -0.606244
Ti       5.77179      5.82985     10.97554         0.477128     -0.425312     -0.948767
Ti       5.80232      9.67354      2.36316         0.596224      0.357766     -0.050818
Ti       5.77357      9.65995     15.38745         0.317491      0.321170      0.009583
Ti       5.73309      9.72689      6.55445         0.172991     -0.637182      1.695596
Ti       5.75445      9.60966     10.96292        -0.293953      1.391284      0.129149
Ti       9.46563      2.02333      2.34501         0.809836      0.658465      0.219460
Ti       9.59018      1.99784     15.30026        -0.287254      0.532061      0.586865
Ti       9.54201     13.67118      2.36492         0.003389     -1.250246     -0.853171
Ti       9.62941     13.58770     15.48283        -0.261315     -0.815514     -0.878537
Ti       9.57601      2.03166      6.68524        -0.166112     -0.552749     -1.642299
Ti       9.54888     13.56279      6.61722         0.276130      0.692147     -0.399399
Ti       9.60412      1.97832     11.06519         0.342451     -0.880419      0.701780
Ti       9.59449     13.47556     11.04384         0.616926      0.293900      0.474073
Ti       9.46478      5.88174      2.46692         1.844416     -0.222651     -2.401503
Ti       9.65646      5.87207     15.48089        -0.608859     -0.021340      0.304693
Ti       9.64603      5.82103      6.63191        -1.133349      0.730757     -0.360600
Ti       9.52576      5.79272     10.99388         0.314820      1.286202     -0.683873
Ti       9.57666      9.87563      2.35748        -0.105359     -1.140748     -0.317129
Ti       9.64139      9.73372     15.40189        -0.343863     -0.163490      0.244553
Ti       9.62520      9.79939      6.59121        -0.689838     -1.582297     -2.197246
Ti       9.57608      9.68645     10.96518        -0.094479     -0.271451      0.823453
O       1.81358      1.87200      0.39780         0.362013      0.118644      0.139274
O       2.00503      1.89629     13.65106        -0.083349     -0.140074      0.070383
O       1.96138     13.37353      0.40342         0.154459      0.111628      1.744122
O       1.96752     13.41260     13.44242        -0.160948     -0.044434      0.452130
O      13.36665      2.05191      0.42405        -0.314154      0.401572     -0.939006
O      13.46361      1.76672     13.57912        -0.310963      0.400629      0.829368
O      13.42843     13.58291      0.43349        -0.113695     -0.075777      0.671418
O      13.64418     13.59827     13.58834        -0.340503      0.003366      0.262813
O       1.81867      1.86328      5.00777         0.152920      0.365196      0.242009
O       1.78296     13.61620      4.90392         0.375444      0.035040      0.414579
O      13.48117      2.17202      4.98268         0.283662     -0.238631      0.250271
O      13.60410     13.75751      4.76692        -0.443552     -0.227498     -0.440473
O       1.99456      2.00715      9.18195         0.382329      0.082850      0.026852
O       1.84932     13.54516      9.09407        -0.165608     -0.217012      1.506730
O      13.14652      2.11780      9.33932         0.021726      0.048275     -1.814018
O      13.44703     13.53867      9.21133         0.064421      0.045882     -0.678587
O       2.00560      5.71481      0.53119        -0.098080      0.009632      0.235919
O       1.80609      5.77462     13.64156         0.299150      0.066635      0.016758
O      13.28339      5.83223      0.50275         0.115279      0.237875      0.049996
O      13.42726      5.92464     13.58399        -0.151784     -0.009080      1.387032
O       1.89028      5.65997      4.70802         0.000753     -0.491232      1.835677
O      13.44089      5.75267      4.88082         0.382820      0.439790     -0.046882
O       1.85692      5.82481      9.10910         0.381053      0.292993      2.085146
O      13.35123      5.92976      9.19713        -0.005647     -0.186798      0.296539
O       1.95916      9.53341      0.48130         0.232650      0.225311      1.381990
O       1.80211      9.44178     13.65355         0.116515      0.664668     -0.317473
O      13.32193      9.80514      0.40816         0.632995     -0.476009      0.764827
O      13.58219      9.81725     13.61555        -0.061841     -0.018070     -0.635118
O       1.78473      9.63669      4.82391         0.017400     -0.173990     -0.411076
O      13.57709      9.81037      4.71628        -0.185134      0.010071      1.019912
O       1.87847      9.55054      9.04529        -0.034027     -0.209729     -0.925603
O      13.40075      9.68898      9.15636        -0.318403      0.305199     -0.975907
O       5.78351      1.99305      0.47700         0.181608     -0.425677     -0.803870
O       5.65073      2.06062     13.55504         0.034321     -0.281108      0.932155
O       5.59504     13.71161      0.52115         0.067616     -0.311737     -0.842705
O       5.87022     13.51965     13.70878        -0.385749     -0.280559     -0.124329
O       5.85913      1.96715      4.97937        -0.392518      0.400908      0.369613
O       5.67732     13.50838      4.84002         0.431760     -0.118684      1.241875
O       5.66589      1.85678      9.13244         0.156650      0.402747      0.766561
O       5.79969     13.35252      9.22661         0.052808      0.148389      1.398284
O       5.96597      5.98372      0.48088        -0.811684     -0.472559      0.485671
O       5.86143      5.80706     13.58428        -0.150284      0.227653      0.587878
O       5.75470      5.87923      4.90874         0.146804     -0.315168     -0.209098
O       5.79323      5.83903      9.18872        -0.056166     -0.057309     -0.230460
O       5.77379      9.63249      0.58208        -0.096203      0.010530     -0.015345
O       5.68070      9.71776     13.60284         0.092045     -0.258757      0.305749
O       5.69440      9.59901      4.82785        -0.141976      0.384670     -1.324223
O       5.62866      9.79668      9.25147         0.498255     -0.130136     -0.607099
O       9.50961      2.01466      0.57656        -0.041876     -0.190110      0.027540
O       9.58851      1.98710     13.55567        -0.016857      0.181966     -0.816897
O       9.65462     13.53240      0.55132        -0.357362      0.799372      0.414609
O       9.44359     13.51992     13.67519         0.215986      0.099669      0.143528
O       9.39190      2.07698      4.84818         0.148099     -0.324775      1.025924
O       9.55695     13.54605      4.81165        -0.454085     -0.233238      0.675133
O       9.79067      1.99046      9.30673        -0.181232     -0.123779     -0.402834
O       9.55323     13.42468      9.25524         0.118337     -0.028132     -0.112463
O       9.55846      6.02615      0.55772         0.062899     -0.722422      1.407165
O       9.66779      5.98938     13.73953         0.037975     -0.316801     -1.313994
O       9.55184      5.91081      4.84761        -0.075794     -0.004986     -0.637865
O       9.57975      5.99787      9.19851         0.038836     -0.788611      0.326253
O       9.50989      9.76969      0.53529         0.061145      0.270499      0.409498
O       9.66714      9.79467     13.60203        -0.123719     -0.364263      0.543321
O       9.70563      9.71220      4.71626        -0.497575      0.472139      1.500826
O       9.70195      9.59514      9.18968        -0.124001      0.592765      0.168705
O       3.78043      1.95994      2.52637        -0.228484      0.217736      0.564360
O       3.87506      1.95820     15.81685        -0.829439     -0.042843      0.173530
O       3.82430     13.50612      2.85853        -1.083099      0.055637     -0.495517
O       3.83665     13.43453     15.79430        -0.542178      0.147538     -0.221259
O      15.21644      2.06270      2.50987         1.338324      0.584509      0.786239
O      15.30279      2.04587     15.76050         0.386661      0.319817      0.163346
O       0.02418     13.42350      2.59989        -0.394001     -0.169353      0.030919
O       0.01595     13.33087     15.78522         0.472630      0.520259     -0.173905
O       3.88478      2.00472      7.12635        -1.487138     -0.071213     -0.073614
O       3.83545     13.54535      7.03750        -0.804242     -0.385349     -0.037391
O       0.00526      1.96378      7.14681        -0.245622     -0.202424      0.176712
O      15.35812     13.66801      7.00231        -0.487916      0.477957      0.354998
O       3.82359      1.98002     11.54834         0.851394      0.195510     -0.895859
O       3.70803     13.37942     11.20839         1.115635      0.025511      0.687799
O       0.02755      1.88028     11.32318        -0.387191      0.292955      0.236665
O      15.35875     13.74256     11.26702         0.651756     -0.345052      0.543681
O       3.85091      5.68080      2.61243         0.084619      0.180811      0.490922
O       3.89598      5.73975     15.63024        -0.416212     -0.019836      0.679455
O      15.28400      6.00424      2.58304         0.357363     -0.856398      0.446966
O       0.00526      5.68250     15.82262        -0.329434      0.110978      0.087984
O       3.91943      5.83160      6.89614        -1.634058     -0.460016      0.607302
O      15.31750      5.98966      7.07721         0.952387     -0.240697     -0.614699
O       3.85241      5.80579     11.27334        -0.632023      0.578748      0.331973
O      15.22952      5.83843     11.45606         1.091254      1.040334     -0.872814
O       3.70205      9.38999      2.81623         1.543687      1.493625     -0.528516
O       3.80697      9.58912     15.74370         0.494688      0.515451      0.267012
O       0.00365      9.62502      2.46335         0.447450     -0.386323      0.505688
O      15.35774      9.89551     15.80892         0.603492     -0.793098      0.327892
O       3.79409      9.66696      7.00925        -0.364338     -0.186381     -0.217581
O      15.31509      9.77926      7.06342        -0.213118     -0.046139     -0.218712
O       3.84118      9.67222     11.28967        -0.617713     -0.366302      0.558130
O      15.32235      9.66646     11.32163        -0.345915      0.006363     -0.340644
O       7.56650      2.01124      2.69339         0.516417     -0.317597      0.106653
O       7.68534      1.85633     15.61423        -0.270462      0.285835      0.791940
O       7.56495     13.66885      2.67927         0.397513     -0.682054      0.095889
O       7.67330     13.51575     15.82334         0.127711      0.471978      0.682349
O       7.75392      1.96875      7.26876        -0.765690     -0.048798      0.034849
O       7.60826     13.44211      7.15425         0.919788      0.068110     -0.720256
O       7.61146      2.04452     11.33752         0.268831     -0.260665     -0.322949
O       7.64811     13.48962     11.47818        -0.084170     -0.324508     -0.297202
O       7.63482      5.85852      2.56473        -0.167572     -0.071701      1.069128
O       7.75299      5.84974     15.70274        -0.928207     -0.351691      0.682600
O       7.71787      5.92514      6.97291        -0.390565     -0.427887      0.507017
O       7.64072      5.73608     11.42439         0.781993      0.314363      0.004723
O       7.65391      9.72506      2.76530        -0.594834      0.296726     -0.257486
O       7.72773      9.77374     15.66005        -0.566786      0.280115      0.337048
O       7.70033      9.64892      6.95181         0.064714      0.913920     -0.084568
O       7.64841      9.77309     11.35175         0.763967     -0.369834     -0.023765
O      11.50496      2.06183      2.76160        -0.746472     -0.154234     -0.014052
O      11.43837      2.00185     15.73872         0.903102     -0.159886      0.389779
O      11.51060     13.53396      2.66266        -0.111774      0.196872      0.180032
O      11.52695     13.54110     15.78170         0.823672      0.250959      0.020635
O      11.49181      2.04982      6.86358        -0.050160     -0.025914      1.007349
O      11.60879     13.51534      6.88065        -2.405016      0.210706      0.377173
O      11.48430      1.93758     11.52781        -0.252307      0.237673      0.094768
O      11.52639     13.49210     11.45513        -0.293870      0.063346     -0.098045
O      11.52995      5.85913      2.85253        -1.012218      1.058695     -0.316288
O      11.52126      5.97878     15.84259         0.635304     -0.368943      0.099656
O      11.46465      5.86282      6.95134         0.711645      0.170233      0.378207
O      11.44692      5.93761     11.43307        -0.546138     -0.672891      0.075432
O      11.55577      9.80687      2.72031        -0.397858     -0.102052     -0.336142
O      11.58595      9.81351     15.75340        -1.479411     -0.440836     -0.077526
O      11.50264      9.75569      6.90822         1.213194      0.065407      0.215381
O      11.51621      9.74299     11.48479        -0.586693     -0.172499     -0.522843
O       1.87056      3.71059      2.59241        -0.047128      1.087731      0.551646
O       1.80686      3.80069     15.82906         0.945601      0.381255     -0.091443
O       1.89574     15.33338      2.60870         0.190880      0.442170      0.261179
O       1.93414     15.38894     15.70420         0.088369     -2.041506      0.004743
O      13.20899      4.01945      2.66968         1.147717     -0.286658     -0.187681
O      13.25134      3.89290     15.57528         0.675164      1.052126      0.700834
O      13.36277     15.53701      2.52728        -0.105227     -0.264550      0.668509
O      13.51086     15.46564     15.78448        -0.653953     -0.710084      0.140196
O       1.96328      3.87587      7.14024         0.012197      0.620629     -0.434872
O       1.93248      0.06165      7.16326        -0.094294      0.314775     -0.190091
O      13.40295      4.04355      7.14323        -0.140565     -0.370191      0.284760
O      13.39173      0.21372      7.00295         0.485593     -0.219177      0.478771
O       1.94725      3.99710     11.42235        -0.022994     -0.507897     -0.310621
O       1.90563      0.16349     11.26734         0.581939     -1.698768      0.100127
O      13.35108      3.92418     11.49422        -0.361776      0.756890     -0.121555
O      13.33207     15.45213     11.14663         0.276498      0.439624      0.884705
O       1.88750      7.55339      2.71146        -0.209265      0.969047     -0.029296
O       1.99138      7.66327     15.81740        -0.762537     -0.119601      0.145478
O      13.44338      7.89599      2.72303        -0.295855     -0.771548     -0.355852
O      13.45573      7.82472     15.77724         0.198868     -0.124370      0.138779
O       1.93463      7.63542      6.91573        -0.039323     -0.253518     -0.066345
O      13.46814      7.84530      6.99362        -0.374799      0.419812     -0.291282
O       1.96675      7.76469     11.48639        -0.281659     -1.132866     -0.620179
O      13.26025      7.78253     11.36283         0.726689      0.689820     -0.213766
O       1.88080     11.54430      2.70791         0.722102     -0.759512     -0.205906
O       1.80419     11.59334     15.77744         1.188226     -1.079119     -0.505197
O      13.47953     11.66645      2.54364        -0.119140      0.463386      0.629321
O      13.44164     11.61516     15.72276         0.065218      1.972469      0.266204
O       1.80491     11.49027      6.94968         0.245110      1.007713      0.152179
O      13.46451     11.76603      6.85786         0.339667     -1.327642      0.147836
O       1.82111     11.39368     11.16773        -0.152049      1.787840      0.493094
O      13.45624     11.64969     11.32007         0.365714     -0.501942      0.241294
O       5.76209      3.90768      2.50895        -0.134661      0.200415      0.864173
O       5.79680      3.87781     15.71802         0.274101      0.501745      0.650074
O       5.63317      0.12769      2.83529         0.041683     -0.122737     -0.375232
O       5.77112     15.42987     15.67921        -0.420761     -0.201548      0.673549
O       5.81736      3.84712      7.08811         0.014396      1.565771      0.123308
O       5.74906     15.42736      7.04629         0.331259     -0.658713      0.154378
O       5.77547      3.93240     11.30174        -0.529920     -0.861953      0.138701
O       5.72639     15.38528     11.37220        -0.327409      0.153494     -0.040074
O       5.76728      7.76155      2.70985        -0.255412     -0.647555      0.262220
O       5.90858      7.78291     15.71556        -0.624624      0.124350      0.137307
O       5.81474      7.87727      6.97215        -0.515236     -1.763860      0.393238
O       5.80736      7.72288     11.36619        -0.081586      0.310701      0.197956
O       5.62162     11.61229      2.55631        -0.079056     -0.221343      0.279396
O       5.77001     11.60462     15.87197        -0.322827     -0.674572      0.273203
O       5.72125     11.57361      6.96444         0.018613      0.503842      0.170998
O       5.76350     11.57362     11.56774        -0.253344      0.414814     -0.301364
O       9.61336      3.94055      2.67334        -0.469668      0.348981      0.198344
O       9.60685      3.89429     15.76010         0.016925      0.479451      0.260234
O       9.59062     15.47869      2.71898         0.103738      0.512096      0.032089
O       9.71466     15.47814     15.76382        -0.786291     -0.316123      0.604334
O       9.54158      3.88305      6.92142         0.051776      1.523445      0.715545
O       9.52626     15.37514      7.04130         0.367615      0.140160      0.212030
O       9.64368      3.91144     11.42339        -0.121936      0.112333     -0.053631
O       9.54391     15.36298     11.46499         0.005808      0.568715     -0.388185
O       9.47582      7.87259      2.58936         0.619142     -0.948305      0.958493
O       9.55834      7.80802     15.83814         0.445414      0.894715      0.020230
O       9.57008      7.85142      6.96061         0.528854     -0.618448      0.188492
O       9.46277      7.73286     11.37099         0.292164      0.813811      0.366034
O       9.53243     11.70320      2.56989        -0.186172      0.421196      0.891544
O       9.61306     11.73345     15.81499        -0.053187     -1.655950      0.301694
O       9.64425     11.62215      6.96840        -0.440963      0.914164      0.160210
O       9.65104     11.58582     11.48786        -0.478683     -0.237077     -0.377764
