  # total energy = -7877.04590142 
CRSYTAL
PRIMVEC
    15.3600000000000000    0.0000000000000000    0.0000000000000000
     0.0000000000000000   15.3600000000000000    0.0000000000000000
     0.2400000000000000    0.0000000000000000    17.440000000000000
PRESSURE
1.07192 0.97065 -4.52303 -0.318054 -0.976787 -0.039031
PRIMCOORD
320 1
Pb       3.93469      3.86775      4.28057        -0.326473     -0.225161      0.823124
Pb       4.09479      3.81404     17.36685        -0.231538     -0.336103      0.721766
Pb       3.98285     15.26806      4.33737        -0.823553      0.623769      0.922399
Pb       4.01792     15.35610     17.42204         0.078529     -0.262990      0.890927
Pb      15.36152      3.81675      4.23979        -0.066021     -0.116750      1.227674
Pb       0.28465      3.82606     17.42859        -0.342498      0.115443      0.617450
Pb      15.37629      0.04932      4.35334         0.096625      0.055699      0.540929
Pb      15.23686     15.31277      0.01446         0.004002     -0.377504      0.509669
Pb       4.04425      3.70475      8.60389        -0.501411      0.481026      0.856782
Pb       3.89270      0.00114      8.83737        -0.068204     -0.328921     -0.789991
Pb      15.40341      3.83589      8.57929         0.358263     -0.568922      1.099218
Pb      15.46845     15.35170      8.67764        -0.371260     -0.014878     -0.075614
Pb       3.92283      3.79094     13.01711         0.896942      0.662775      0.985427
Pb       4.05185     15.35378     13.07634         0.099560     -0.247930      0.187840
Pb       0.18865      3.82997     13.04282        -0.171766     -0.003334      0.125293
Pb       0.20700      0.11469     12.99401         0.129364     -0.657914      0.725395
Pb       3.81312      7.67343      4.28901         0.511341      0.173242      0.289237
Pb       4.00403      7.64750     17.32538        -0.483359      0.314534      1.302436
Pb      15.37032      7.66674      4.28441         0.017693     -0.393015      0.908904
Pb      15.56474      7.74271     17.35222        -0.076448     -0.146050      0.364365
Pb       3.88822      7.67977      8.69352         0.257712     -0.275567      0.511260
Pb      15.43917      7.69282      8.70058        -0.639405     -0.475034      0.500832
Pb       4.02116      7.74962     12.85733         0.127874     -0.135903      1.460446
Pb      15.37660      7.66400     13.07919         1.289267      0.209136      1.038044
Pb       3.81075     11.50467      4.31943         0.557499     -0.630875      0.928305
Pb       3.87565     11.53978      0.08961        -0.333999      0.200104      0.179782
Pb       0.16024     11.54559      4.26787        -0.717648     -0.159926      1.694024
Pb       0.27137     11.44969     17.37495        -0.562036      0.387953      1.219137
Pb       3.86641     11.52400      8.73751         0.564706     -0.214479     -0.237784
Pb      15.45943     11.42948      8.64072        -0.268639      0.309794      0.755578
Pb       3.98033     11.48671     13.06203         0.184387     -0.101756      0.325584
Pb       0.24740     11.52770     12.98147        -0.058962     -0.347049      0.771380
Pb       7.68345      3.81092      4.23194         0.279062     -0.003976      0.667964
Pb       7.98704      3.93308     17.42538        -0.520149     -0.489118     -0.150496
Pb       7.71205      0.06691      4.29108        -0.003835     -0.056953      0.495889
Pb       7.85104     15.27009     17.27794        -0.048283      0.497331      1.826628
Pb       7.76041      3.82050      8.64463        -0.315461      0.417694      0.801123
Pb       7.84957      0.02493      8.68503        -0.221144     -0.667148      0.348428
Pb       7.84944      3.67705     13.08324        -0.176023      0.582407      0.155567
Pb       7.80367     15.32565     13.05510         0.436547      0.046501      0.156950
Pb       7.71749      7.74804      4.22893         0.167780     -0.234751      0.249941
Pb       7.85821      7.63214     17.43835         0.134949      0.058164     -0.139083
Pb       7.84927      7.65698      8.74149        -0.342143     -0.092541      0.153610
Pb       7.84758      7.62133     13.05825        -0.157310      0.285084      0.566483
Pb       7.62697     11.50432      4.27195         0.480730     -0.088301      0.117915
Pb       7.84956     11.44909     17.40216         0.019017      0.273244      0.423445
Pb       7.81315     11.55680      8.74841        -0.227946     -0.283004     -0.353448
Pb       7.85110     11.47609     13.02646        -0.237842     -0.188268      0.220315
Pb      11.55780      3.82240      4.21936        -0.059026      0.190117      1.375376
Pb      11.74790      3.84846     17.37766        -0.064745     -0.228027      0.879011
Pb      11.55580     15.34165      4.34742        -0.175371     -0.270371      0.393453
Pb      11.80951     15.22226     17.26524        -1.121827      0.722665      1.633489
Pb      11.57491      3.80501      8.64378         0.454011      0.125639      0.195416
Pb      11.53916     15.31168      8.73598         0.471805     -0.243025     -0.496386
Pb      11.71761      3.90039     13.10228        -0.184307     -0.285772     -0.257026
Pb      11.71074     15.35295     13.03385        -0.333284     -0.470154      0.642308
Pb      11.56403      7.67427      4.42203        -0.444928      0.062745     -0.306488
Pb      11.79917      7.66727     17.38571        -0.010457      0.162123      0.433011
Pb      11.57217      7.61368      8.58022         0.770793      0.457052      0.606207
Pb      11.66752      7.58182     13.10759        -0.385776      0.571485      0.137930
Pb      11.51316     11.51261      4.25705        -0.281256      0.108107      0.531372
Pb      11.72475     11.43061     17.40277         0.184469      0.210280      1.272702
Pb      11.64238     11.52100      8.61600        -0.009163     -0.431466      0.476233
Pb      11.70166     11.58820     12.99297        -0.064012     -0.139980      0.352669
Ti       1.92866      1.90852      2.38963         0.400499     -0.538851     -1.119361
Ti       2.05236      1.85087     15.51595         0.244838      0.059633     -0.468982
Ti       1.88573     13.41513      2.41892         0.359059      0.603742     -1.281163
Ti       2.03473     13.42879     15.44249         0.159146     -0.085764     -1.317047
Ti      13.40711      1.89178      2.33642         0.443436      0.241397     -0.362200
Ti      13.58604      1.94135     15.42413         0.353872     -0.339143     -0.802475
Ti      13.47106     13.45401      2.43781        -0.309872     -1.072890     -1.365582
Ti      13.55848     13.38710     15.37089         0.801071      0.068185     -1.421260
Ti       2.02686      1.86006      6.63782        -0.140683      0.408740     -0.947550
Ti       1.96917     13.40447      6.74133         0.318227     -0.113921     -1.116363
Ti      13.52599      1.88703      6.69867        -0.014227     -0.634453     -0.744050
Ti      13.45110     13.41521      6.69804         0.037714      0.671638     -1.325429
Ti       2.13097      1.96923     11.08781        -0.444990     -0.442749     -1.363941
Ti       2.20330     13.41425     11.07955        -0.318486     -0.433171     -0.444464
Ti      13.54533      1.82568     10.95656         0.797688      0.445385     -0.932117
Ti      13.70160     13.39165     11.07006        -0.429951     -0.272828     -0.800243
Ti       1.91042      5.73745      2.35678         0.050807     -0.061819     -1.746735
Ti       2.08509      5.73371     15.44309        -0.330674      0.319383     -1.051997
Ti      13.44091      5.82209      2.35156        -0.363943     -0.804975     -1.108817
Ti      13.62327      5.71724     15.41115         0.391317      0.615791     -0.433567
Ti       2.06134      5.71191      6.75166        -0.717472     -0.721035     -1.370988
Ti      13.55473      5.75910      6.67095        -0.503339     -0.493920     -1.358902
Ti       2.02622      5.85197     11.09031         0.387341     -1.190710     -1.345209
Ti      13.53892      5.70583     11.04880        -0.010027     -0.077488     -0.327131
Ti       1.95017      9.56483      2.37547         0.382001     -0.236255     -1.044062
Ti       2.16886      9.66175     15.36692         0.046379     -0.430503     -1.054555
Ti      13.53604      9.63713      2.51931        -1.528642      0.263577     -1.972219
Ti      13.66931      9.67769     15.34037         0.148586     -1.268554     -0.890010
Ti       1.98056      9.49686      6.70103         0.367717      0.806522     -0.653631
Ti      13.59930      9.62998      6.58893        -1.219337     -0.696719     -0.371472
Ti       2.00407      9.57397     10.94953         0.064038      0.654349      0.914678
Ti      13.49464      9.51474     11.09432         0.691888      0.531371     -1.670908
Ti       5.74286      1.94202      2.32655         0.296238     -1.414930     -1.276281
Ti       5.94365      1.87197     15.45783         0.158701      0.075598      0.636947
Ti       5.70103     13.44322      2.46060         0.788748      0.133004     -1.994851
Ti       5.81165     13.42760     15.36452         0.711977      0.019608     -0.361813
Ti       5.88266      1.79043      6.73916        -0.552954      0.823556     -1.779928
Ti       5.80223     13.36708      6.65763        -0.421984     -0.704544     -0.877609
Ti       5.92020      1.94021     10.94412         0.769634     -0.042727      0.202332
Ti       5.93657     13.39548     10.96438        -0.187822      0.185247      0.320335
Ti       5.76805      5.80455      2.24484        -0.037299     -0.406173     -1.021996
Ti       5.87135      5.74130     15.42615         0.433909      0.156202     -0.979964
Ti       5.79054      5.82384      6.68204         0.716797     -1.355085     -0.562799
Ti       5.88279      5.77764     11.08749         0.637841     -0.542636     -1.016463
Ti       5.83418      9.58351      2.20337        -0.851979     -0.178843     -0.623229
Ti       5.94724      9.58417     15.52868         0.235953      0.130497     -0.607650
Ti       5.82419      9.51943      6.67050         0.093133      0.859130     -1.023063
Ti       5.90900      9.63743     10.93746         0.040578     -0.163761     -0.419710
Ti       9.64463      1.89771      2.31624        -0.597023      0.513747     -0.870681
Ti       9.77572      1.90022     15.42832        -0.567065     -0.899986     -0.646507
Ti       9.52565     13.47650      2.25654         0.839276     -0.667835     -0.447200
Ti       9.71244     13.36272     15.45351        -0.165884      1.502829     -1.401233
Ti       9.64647      1.82976      6.73591         0.825850      0.484603     -2.037469
Ti       9.56803     13.35955      6.57292         0.984883     -0.023760     -0.492194
Ti       9.84225      1.83378     11.01058        -1.250667      0.022433     -0.116731
Ti       9.76411     13.41321     11.01027         0.626312      0.364982     -0.032186
Ti       9.63307      5.74543      2.23673         0.727363      0.359485     -0.481914
Ti       9.81850      5.73128     15.41368        -0.487419      0.744865     -0.352490
Ti       9.64313      5.72954      6.74924        -0.038155     -0.036414     -1.848545
Ti       9.69991      5.73892     11.04663        -0.353546     -0.095920     -0.094228
Ti       9.64607      9.57914      2.19595         0.321872      0.142325     -0.500602
Ti       9.84652      9.57621     15.40384        -1.181305     -1.029824     -0.539506
Ti       9.62795      9.62923      6.71999         0.319651      0.009991     -1.312110
Ti       9.70793      9.62327     10.97522        -0.256795     -0.725482      0.221990
O       1.93080      1.95446      0.53199        -0.240784     -0.102388      2.043646
O       2.02709      1.84142     13.67901         0.070468      0.113863      1.136041
O       1.85839     13.35117      0.60079         0.024022      0.214667      1.728298
O       2.07355     13.39656     13.57350         0.265696      0.155523      2.016435
O      13.36073      1.85218      0.55141        -0.030730      0.102067      0.917872
O      13.57060      1.92856     13.58468         0.225336      0.212053      2.212545
O      13.59471     13.25068      0.60267        -0.607731      0.792635      1.804299
O      13.51147     13.35015     13.51397         0.190110      0.105393      2.256502
O       1.87183      1.98672      4.82190         0.455969     -0.574563      1.809646
O       2.01040     13.40056      4.91715        -0.147756     -0.286709      1.648800
O      13.63881      1.84128      4.88143        -0.493349      0.065321      1.337986
O      13.33641     13.50750      4.84885         0.529259     -0.261133      2.274651
O       2.22053      1.87330      9.27869        -0.345391     -0.120836      1.908670
O       2.40985     13.32134      9.25331        -1.314108      0.810708      1.639778
O      13.55349      1.73207      9.08436        -0.010465      0.298133      2.778438
O      13.71594     13.39340      9.23869        -0.537403      0.006640      1.962562
O       1.87493      5.75177      0.48278        -0.183177     -0.203686      2.798939
O       2.16264      5.68680     13.63125        -0.185663     -0.003690      1.088633
O      13.40264      5.80678      0.51667         0.075505      0.084425      1.523495
O      13.52038      5.64994     13.54985         0.232714      0.122039      1.814126
O       2.12389      5.69636      4.90942        -0.332224      0.317061      1.891246
O      13.68155      5.77730      4.84255        -0.795789     -0.148701      2.033651
O       2.12517      5.77650      9.26966        -0.512831      0.128897      1.830060
O      13.43970      5.75865      9.26384         0.273098     -0.096750      1.149557
O       1.83175      9.52685      0.59749         0.028526      0.251923      1.099309
O       2.10788      9.76593     13.52083         0.291457     -0.559910      2.462346
O      13.51653      9.64061      0.62787        -0.159258     -0.130635      1.671191
O      13.69164      9.52526     13.48725        -0.477377      0.463420      2.706906
O       1.89096      9.60947      4.89741         0.332880     -0.405921      1.376430
O      13.61722      9.52224      4.74274        -0.258558      0.137518      2.509944
O       2.09892      9.51529      9.14987        -0.437044     -0.129306      1.227888
O      13.57987      9.53095      9.21061        -0.077611     -0.108636      2.424939
O       5.80824      1.90438      0.51299        -0.555039      0.156506      1.258338
O       6.00452      1.78677     13.70117        -0.377002      0.147140      0.300934
O       5.40996     13.52168      0.64443         1.002785     -0.446692      1.929676
O       5.80600     13.49299     13.54503         0.387045     -0.253770      1.567405
O       5.92964      1.97430      4.88838        -0.108937     -0.536120      2.218537
O       5.79834     13.24897      4.78413         0.163690      0.224906      1.863538
O       5.94343      1.83351      9.10130        -0.284249     -0.032610      2.063383
O       5.79848     13.32793      9.18072         0.358606      0.198615      0.918336
O       5.79974      5.77857      0.39802        -0.378060     -0.457481      2.135115
O       5.80438      5.79577     13.60611         0.105142      0.005404      1.864685
O       5.77164      5.84802      4.83336         0.220032     -0.084496      1.875530
O       5.85354      5.71260      9.28183         0.085141      0.141142      1.344063
O       5.75938      9.68235      0.36832         0.082726     -0.436389      2.114535
O       6.01247      9.62829     13.73494        -0.215166      0.094846      0.831218
O       5.88529      9.47319      4.76925         0.149107     -0.070968      2.322115
O       5.84869      9.61746      9.12771         0.261421     -0.316913      1.877188
O       9.69969      1.99352      0.51219        -0.366318      0.028694      1.727262
O       9.73335      1.74153     13.60976         0.267864      0.705033      1.483542
O       9.40048     13.52633      0.46323         0.582807     -0.380630      0.986693
O       9.84702     13.66676     13.60124        -0.221278     -1.316811      2.470612
O       9.49382      1.89434      4.87637         0.287256      0.208793      2.458412
O       9.66437     13.30962      4.76151        -0.198268      0.171009      1.494070
O       9.72581      1.62154      9.18751         0.199383      0.664549      1.173059
O       9.69129     13.38268      9.20656         0.022712      0.158916      1.436486
O       9.70678      5.65121      0.36687        -0.435746      0.251127      2.004254
O       9.85118      5.73743     13.58875         0.110990     -0.121791      1.324220
O       9.57009      5.77716      4.92195         0.146477     -0.032720      1.851241
O       9.71109      5.74703      9.23051        -0.007095      0.063719      1.603584
O       9.63643      9.51320      0.38055        -0.125772      0.186839      1.893065
O       9.77006      9.49254     13.57555        -0.002304      0.394326      1.801556
O       9.57288      9.67546      4.87388        -0.147410     -0.412342      1.938570
O       9.56737      9.68370      9.15363         0.635261     -0.358044      1.729699
O       3.84987      1.74681      2.82310        -0.233426      0.654707     -0.528408
O       3.96862      1.82052     15.90809         0.391144      0.273000     -0.879373
O       3.90380     13.37031      2.96704        -0.900159     -0.019252     -1.003438
O       3.98431     13.47088     15.87120        -0.511664     -0.018355     -0.600224
O      15.39544      1.90548      2.74254        -0.014515     -0.243492     -0.524422
O      15.48602      1.77955     15.99328        -0.206913      0.701184     -1.052086
O       0.05471     13.43409      2.92628        -0.147166     -0.089198     -0.837512
O      15.45588     13.37281     15.84723         0.132926      0.128559     -0.679310
O       3.97321      1.73453      7.06833         0.370814      0.224447     -0.230556
O       3.90866     13.39533      7.12109         0.860947     -0.067893     -0.627901
O       0.14380      1.99429      7.16936         0.008366     -1.109247     -0.548088
O      15.40744     13.42683      7.22761         0.917701     -0.107048     -0.821219
O       4.03865      1.88558     11.53668         0.271868     -0.134054     -0.712418
O       4.05801     13.27678     11.54066        -0.184302      1.298021     -0.728709
O      15.50645      1.93876     11.50470         0.382377      0.115821     -0.757867
O       0.24389     13.28608     11.49923        -0.381756      0.850940     -0.995819
O       3.91482      5.84987      2.78829        -0.574066     -0.739689     -0.849380
O       3.89220      5.70756     16.00779         1.579663     -0.028173     -1.152659
O      15.32098      5.67773      2.76523         1.558610      0.598606     -0.767393
O      15.56688      5.77419     15.86544        -0.392214     -0.072365     -0.546522
O       3.87644      5.69571      7.21654         1.174978      0.449728     -0.767107
O      15.38220      5.58642      7.18107         0.935867      0.611189     -0.681068
O       4.03966      5.80906     11.51924        -0.956721      0.252754     -0.485553
O      15.51635      5.69350     11.54683        -0.098922     -0.134420     -0.718709
O       3.89399      9.60353      2.69263        -0.136318     -0.347825     -0.239028
O       4.04157      9.66649     15.97146        -0.804993     -0.122491     -1.068013
O      15.38720      9.60969      2.87962         0.983216     -0.282436     -0.904650
O       0.25748      9.62463     15.83479        -0.936439      0.157441     -0.877166
O       3.87208      9.42231      7.01818         0.504065     -0.190690     -0.403027
O      15.43956      9.45723      7.23640         0.206189      0.525939     -1.075590
O       4.00209      9.62072     11.40779         0.379994     -0.466020     -0.578090
O       0.17249      9.63931     11.48952         0.224220     -0.314087     -0.917979
O       7.63927      1.91067      2.78815         0.903296      0.326162     -0.690909
O       7.84198      1.90218     15.86586         0.511080      0.300013     -0.487917
O       7.77516     13.48555      2.78011        -1.372760     -0.192111     -0.353418
O       7.74382     13.47398     15.83282         1.172913     -0.699198     -0.814301
O       7.81366      1.89893      7.27924        -0.019537     -0.231521     -1.017535
O       7.75779     13.22793      7.02437        -0.530078      0.225580     -0.209427
O       7.81945      1.98922     11.57204        -0.235647     -0.804296     -1.411792
O       7.97190     13.40369     11.48121        -1.567174     -0.389761     -0.498233
O       7.78407      5.70038      2.57388        -0.888653      0.174699     -0.172358
O       7.79866      5.82608     15.81705         1.053774     -0.290725     -0.540668
O       7.71257      5.66959      7.23937         0.260349      0.434558     -0.968402
O       7.81065      5.59571     11.62948         0.975417      0.248540     -0.899264
O       7.70808      9.46916      2.59985         0.584695     -0.110977     -0.250367
O       7.87409      9.49090     15.99940         0.378538      0.427969     -1.125518
O       7.78111      9.50853      7.17325        -0.345173      0.121757     -0.818067
O       7.77154      9.64113     11.53354         0.788225      0.651009     -0.788583
O      11.50732      1.89332      2.91694         0.430799      0.053780     -1.078361
O      11.67699      1.90937     15.86848         1.082721      0.156042     -0.791405
O      11.59153     13.33364      2.75023        -0.877483      0.762464     -0.681021
O      11.67572     13.32736     15.98481        -0.085986      0.242300     -1.291308
O      11.61519      1.75243      7.10826        -0.859864      0.378238     -0.363906
O      11.53424     13.31622      7.15485         1.128125      0.385420     -0.662260
O      11.73328      1.73135     11.40091        -0.323285      0.274871     -0.531534
O      11.71199     13.47936     11.48775         0.012946     -0.283664     -0.734549
O      11.60058      5.66734      2.85481        -0.451891      0.456742     -0.705195
O      11.77286      5.66853     15.88448        -0.008739      0.389910     -1.072644
O      11.57496      5.78612      7.13450         0.519252     -0.735662     -0.432647
O      11.64830      5.87573     11.52380        -0.208949     -0.391174     -0.664670
O      11.57730      9.61382      2.88404        -0.437189      0.050837     -0.858379
O      11.62636      9.62733     15.97744         2.051531     -0.026357     -1.542942
O      11.70089      9.68080      7.01441        -0.381967     -0.454501     -0.234448
O      11.61377      9.45983     11.46405         0.204300     -0.130971     -0.606847
O       1.99779      3.85506      2.89250         0.157554      0.020146     -1.396034
O       2.05775      3.75400     15.91895         0.036625      0.110884     -0.800519
O       1.94808     15.27964      2.87482         0.099602      0.487917     -0.787256
O       1.98810     15.27533     16.04615         0.385637      0.317831     -1.143408
O      13.49144      3.77545      2.82210        -0.399754     -0.009885     -0.887212
O      13.73618      3.89822     15.91514        -0.280416     -1.482523     -0.894382
O      13.47626     15.35816      2.84517        -0.062641     -0.072156     -0.728974
O      13.55852     15.30072     15.81601         0.285273      0.158331     -0.760885
O       2.11309      3.71217      7.23824        -0.203407      0.702373     -0.814170
O       2.07448     15.29465      7.18966        -0.590139      0.363984     -0.322569
O      13.47220      3.71183      7.12304        -0.239132      1.303660     -0.147689
O      13.53995     15.30219      7.10617         0.245902     -0.474442     -0.206895
O       2.18833      3.86221     11.56653        -0.734735     -0.447239     -0.875421
O       2.16694     15.33362     11.54100        -0.290193      0.143471     -0.834496
O      13.47470      3.80417     11.45989         0.236678     -0.259124     -0.604162
O      13.69697     15.30527     11.56486         0.061854      0.193309     -1.231968
O       1.95854      7.65029      2.84688        -0.389039     -0.205334     -0.746077
O       2.12435      7.70888     15.84160         0.099690      0.224852     -0.748067
O      13.38889      7.64045      2.89730         0.643222      0.399485     -0.904547
O      13.67554      7.73164     15.80038        -0.374763      0.070291     -0.578182
O       1.90728      7.56403      7.20355         0.347832      0.337508     -0.834977
O      13.52249      7.59021      7.09178         0.284731      0.793848     -0.426241
O       1.99033      7.70174     11.55988         0.393604      0.029677     -0.885640
O      13.74026      7.63792     11.65385        -1.375800     -0.235132     -1.801476
O       1.99816     11.47864      2.85604        -0.303503      0.133525     -0.835068
O       2.09715     11.56686     15.92858         0.455515     -0.580147     -0.904235
O      13.49730     11.51999      2.97073         0.429907      0.031710     -0.921476
O      13.52325     11.50096     15.88224         0.540525     -0.551637     -0.992793
O       2.04752     11.45864      7.22104        -0.483695     -0.307998     -0.967386
O      13.67419     11.46491      7.12199        -0.348953      0.210380     -0.718223
O       2.16614     11.48796     11.49364        -0.272059     -0.194812     -0.865122
O      13.57188     11.39763     11.56489        -0.244514      0.869328     -0.983401
O       5.66030      3.72504      2.72841         0.494177      2.165311     -0.514861
O       5.94499      3.83519     15.81479        -0.367930     -0.128586     -0.341406
O       5.79196     15.32413      2.91485         0.091309     -0.223496     -0.863405
O       5.97008     15.28584     15.97514        -0.955912      0.707614     -1.345569
O       5.83996      3.76180      7.15173         0.240953      0.256654     -0.769319
O       6.01102     15.20051      7.03885        -0.212666      0.783199     -0.292161
O       5.90550      3.84076     11.51614        -0.375748     -1.097470     -0.570644
O       5.98479     15.29597     11.43340        -0.439282      0.742052     -0.709593
O       5.83412      7.60649      2.57533         0.035201      0.634062     -0.007766
O       5.85004      7.67778     15.98385         0.294637     -0.248229     -1.226865
O       5.89548      7.58586      7.25603        -0.314689      0.628074     -0.929182
O       6.13247      7.71376     11.47574        -1.269883      0.025360     -0.781708
O       5.89214     11.40849      2.64268        -0.232876      0.999840     -0.121637
O       5.90639     11.57081     16.01504         0.253226     -0.042121     -1.207474
O       5.80712     11.36000      7.08838         0.031220      0.414395     -0.630621
O       5.91325     11.56778     11.47185         0.605204     -1.058545     -0.376079
O       9.67803      3.91290      2.81936        -0.238091     -1.023091     -0.768490
O       9.82745      3.83974     15.82925        -0.294309     -0.188928     -0.586814
O       9.58718      0.08867      2.78969         0.456786     -1.138248     -0.673243
O       9.74216      0.00957     15.96676         0.734614     -0.283432     -1.084893
O       9.74829      3.83374      7.26044        -0.434133     -0.910765     -0.942776
O       9.66764     15.23855      7.05472        -0.332502      0.482800     -0.284900
O       9.88762      3.70883     11.40809        -0.010008      0.818467     -0.173274
O       9.71466      0.00293     11.54416         0.228319     -0.289744     -1.052325
O       9.83765      7.66911      2.64962        -0.722883     -0.530983     -0.115317
O       9.95268      7.63903     15.82984        -0.547954     -0.457033     -0.608131
O       9.74632      7.64780      7.16945        -0.651090      0.577128     -0.629532
O       9.53857      7.67407     11.47626         0.789328     -0.436492     -1.017332
O       9.49987     11.47213      2.49492         0.508547      0.170459      0.169727
O       9.71789     11.51056     15.79724        -0.058574     -0.044696     -0.504318
O       9.69499     11.51792      7.23118        -0.189174     -0.768586     -0.858476
O       9.84615     11.45592     11.51731        -0.353141      0.559147     -0.684069
