  # total energy = -7879.66923287 
CRSYTAL
PRIMVEC
    15.3600000000000000    0.2300000000000000    0.0000000000000000
     0.0000000000000000   15.3600000000000000    0.0000000000000000
     0.0000000000000000    0.0000000000000000    17.440000000000000
PRESSURE
0.381989 0.911182 0.99833 0.05009 -0.062075 -1.54182
PRIMCOORD
320 1
Pb       3.78534      3.89586      4.51275         0.175261     -0.278269     -0.904961
Pb       3.86727      3.72989      0.02571         0.101668      0.677146     -0.670345
Pb       3.91771     15.38759      4.26713        -0.231585     -0.054066     -0.521684
Pb       3.88906     15.41028     17.42186        -0.158274     -0.524420     -0.552753
Pb      15.18680      4.11285      4.39601         0.758751     -0.120429     -0.524338
Pb      15.31597      4.05996     17.38449        -0.088000      0.153737     -0.052064
Pb       0.06439     15.20866      4.30434        -0.009430      0.209480     -0.543606
Pb       0.08612      0.02283     17.38296        -0.493407     -0.209621      0.326345
Pb       3.81711      3.89943      8.77566         0.023017      0.182766     -1.373429
Pb       3.86336     15.35769      8.65733        -0.192093      0.368018     -0.683383
Pb      15.31283      3.85359      8.71374         0.214139      0.539426     -0.791407
Pb      15.31113      0.24585      8.70915        -0.257226     -0.142152     -0.472498
Pb       3.65229      3.84843     12.98570         0.800015     -0.266660     -0.032036
Pb       3.89446     15.25718     12.98466        -0.298574      0.493785     -0.104260
Pb      15.32932      4.07481     13.03845        -0.468745     -0.138052     -0.448514
Pb      15.34203     15.51187     13.08494        -0.053230      0.140699     -0.829884
Pb       3.75211      7.72034      4.37513         0.054197      0.201374     -0.731539
Pb       3.85823      7.62219      0.01012        -0.009012     -0.095060     -0.908961
Pb       0.13839      7.84163      4.36722        -0.944539     -0.618768     -0.149107
Pb       0.02083      7.67081      0.00901        -0.319243     -0.188935     -0.835970
Pb       3.87774      7.77749      8.77308         0.497473     -0.020452     -0.342839
Pb       0.12151      7.58442      8.77607        -0.152121     -0.082619     -0.478809
Pb       3.80255      7.69739     13.16394        -0.654209      0.531433     -0.261880
Pb      15.32532      7.89674     13.06168         0.428060      0.558975     -0.329355
Pb       3.73735     11.70307      4.39017         0.103299     -0.295394     -0.766830
Pb       3.75195     11.55034      0.00769         0.340061      0.099423     -0.619741
Pb      15.27250     11.80938      4.34175         0.054803     -0.352404     -0.076302
Pb      15.18088     11.68372     17.36312         0.189866     -0.078212     -0.448821
Pb       3.96638     11.67122      8.75012        -0.023413     -0.795358     -0.825756
Pb       0.08755     11.53038      8.84872        -0.428401      0.092170     -0.677586
Pb       3.86273     11.56908     13.14490        -0.257000     -0.268122     -0.672143
Pb      15.33373     11.72934     13.15202        -0.147799     -0.395092     -0.776816
Pb       7.74466      3.98903      4.36444        -0.331230     -0.164108     -0.927463
Pb       7.75075      3.81837     17.43426        -0.158930      0.406555     -0.517735
Pb       7.80509     15.43780      4.28080        -0.429209      0.220318     -0.523459
Pb       7.60769     15.38716     17.37816         0.541969      0.204689     -0.554810
Pb       7.68442      3.95285      8.73848        -0.122243     -0.000566     -0.759233
Pb       7.61489      0.13981      8.63297         0.552607     -0.411083     -0.585595
Pb       7.61008      4.00611     13.07437         0.215404     -0.601073     -0.567808
Pb       7.66373      0.29433     12.95465         0.588797     -1.010004     -0.016325
Pb       7.66353      7.80386      4.29395        -0.125318     -0.421075     -0.758950
Pb       7.58040      7.72634     17.37928        -0.559519     -0.000323     -0.438286
Pb       7.58655      7.61367      8.66684        -0.131784      0.660214      0.416433
Pb       7.68204      7.72360     13.04365        -0.207482      0.315087     -0.269272
Pb       7.64041     11.50296      4.19569        -0.388973      0.412381     -0.074093
Pb       7.73668     11.64584     17.39451        -0.462727     -0.043488     -0.364077
Pb       7.72313     11.59217      8.58742         0.087239      0.191329     -0.192444
Pb       7.66244     11.59675     12.94145        -0.313707      0.513085     -0.341171
Pb      11.54173      3.95566      4.25767        -0.467886      0.023788      0.027532
Pb      11.58168      4.07561     17.39414        -0.453168     -0.246295     -0.716624
Pb      11.46469     15.38405      4.31276         0.130591      0.227433     -0.372993
Pb      11.61384      0.23496     17.42068        -0.401869     -0.331455     -0.625014
Pb      11.53709      4.14962      8.65121        -0.413146     -0.403702     -0.343752
Pb      11.40700     15.49801      8.72092        -0.024282     -0.200427     -0.331614
Pb      11.53823      4.12432     13.03507        -0.344875     -0.845219     -0.240394
Pb      11.40535      0.17497     13.08205        -0.130022      0.056723     -0.927025
Pb      11.57250      7.72559      4.37438         0.434828      0.904625      0.075447
Pb      11.49098      7.86297      0.00164         0.659364      0.286926     -0.718244
Pb      11.45501      7.84745      8.75447        -0.244591     -0.004583     -0.943703
Pb      11.51975      7.88976     13.02753         0.264895      0.084741     -0.247059
Pb      11.38366     11.73810      4.44987         0.396444     -0.578588     -0.439708
Pb      11.48974     11.63785      0.08023        -0.045381      0.173002     -1.304420
Pb      11.60819     11.69057      8.72311        -0.521510      0.276995     -0.657290
Pb      11.40964     11.67999     13.10288         0.443448      0.176599     -0.706332
Ti       1.84976      1.94527      2.17734        -0.145022     -0.620802      1.182058
Ti       1.92147      1.86491     15.39667         0.292697      0.476465      0.358128
Ti       1.83344     13.41867      2.18561         0.753361      0.355644      0.927768
Ti       1.78916     13.43174     15.41133         1.473582     -0.464698      0.353044
Ti      13.32653      2.02277      2.25297         1.358141      0.390353     -0.271845
Ti      13.50620      2.09979     15.26257        -1.127669     -0.174725      0.371496
Ti      13.35749     13.53151      2.17150         0.265665      0.744056     -0.189084
Ti      13.38638     13.70274     15.30118        -0.804435     -1.595840      2.007021
Ti       1.85445      1.93880      6.66170         0.459983      0.131276      0.240268
Ti       1.85361     13.44254      6.81412         0.496758      0.200258      1.040358
Ti      13.28408      2.09656      6.56340         0.619302     -1.178029      1.017687
Ti      13.42853     13.65583      6.73136         0.013481     -0.181910      0.457486
Ti       1.85732      1.86093     10.97828         0.214519      0.250960      2.498838
Ti       1.98978     13.45447     10.89745        -1.041401     -0.785520      0.652539
Ti      13.41472      2.09400     11.05031        -0.935841      0.189918      1.421643
Ti      13.39914     13.65642     11.02950        -0.246568     -0.066401      0.907329
Ti       1.87257      5.65932      2.29085         0.312900      0.380261     -0.482491
Ti       1.81570      5.70202     15.37098         0.273194      1.606564      1.741959
Ti      13.41410      5.92600      2.34645         1.029160      1.575492     -0.796084
Ti      13.32427      5.92769     15.29023         1.572430      0.886394      0.628428
Ti       1.92763      5.86619      6.62112        -0.552831     -2.412989      1.697072
Ti      13.39869      5.96315      6.66483         0.597307     -0.068820      0.320810
Ti       1.88309      5.64852     10.97711        -0.155137      2.742675     -0.810522
Ti      13.43323      5.96461     10.95875        -0.172402     -0.410956      0.733014
Ti       1.81055      9.60321      2.17537         1.140983      0.548566      1.196305
Ti       1.89881      9.58089     15.45577        -0.571555     -0.632196     -0.038668
Ti      13.39948      9.83247      2.33083         0.002669     -1.213641      0.643253
Ti      13.37350      9.75761     15.37235         0.573482      0.080118      1.430287
Ti       1.91131      9.59903      6.67401         0.348906      0.888237      1.704481
Ti      13.44993      9.71413      6.82677        -0.047952      0.656471     -1.615365
Ti       1.84803      9.62934     11.02054         0.145023     -0.611052      4.047540
Ti      13.36842      9.84145     10.94627         0.834718      0.172264      2.773371
Ti       5.66185      2.03667      2.27083         1.339039      0.159744      2.343612
Ti       5.82887      1.95045     15.30530        -0.165269      0.457556      0.784984
Ti       5.74204     13.47949      2.26449        -0.674130      0.051628      2.214239
Ti       5.73232     13.52027     15.21799        -0.519084     -0.323341      2.206425
Ti       5.70933      1.92099      6.63473         0.530933      0.912445      0.670918
Ti       5.68997     13.45631      6.52179         1.238962     -0.058765      1.170603
Ti       5.68423      1.96935     10.98182         0.241345      0.085453      0.291069
Ti       5.74371     13.49923     10.82469         0.964862     -0.283534      0.448704
Ti       5.68773      5.88760      2.38813         1.026438     -1.379419     -1.009864
Ti       5.71561      5.79305     15.32726        -0.264423      0.655158      1.318956
Ti       5.68612      5.83833      6.61661         0.029786     -0.232884      1.468554
Ti       5.67006      5.88852     11.19074         1.047272     -0.237202     -1.125509
Ti       5.62831      9.65648      2.19278         0.196542      0.714331     -0.767874
Ti       5.75060      9.76221     15.34129        -0.877222     -1.102801      0.243915
Ti       5.80169      9.66352      6.59617        -0.834240      0.062885      1.675761
Ti       5.73310      9.65331     11.16248        -0.627419      0.050100     -1.172298
Ti       9.56822      2.06357      2.24467        -0.895360     -0.254751      0.222089
Ti       9.69441      2.01233     15.38811        -1.855040      0.116492     -0.506508
Ti       9.53959     13.46412      2.19519         0.013149      1.122460     -0.238199
Ti       9.55150     13.53583     15.25616         0.325536      1.143846      2.894263
Ti       9.56827      2.01563      6.63271        -0.590973      0.397238      1.682273
Ti       9.56935     13.52083      6.59357        -0.637995     -0.117864      0.938087
Ti       9.54521      2.09237     11.02059         0.743882     -1.163023      0.285602
Ti       9.55652     13.52076     10.92371        -0.015071      1.458692      0.259646
Ti       9.69777      6.00515      2.21365        -2.119169     -1.902340      0.646735
Ti       9.58401      6.01047     15.25803        -0.002680     -1.330522      1.694161
Ti       9.52166      5.91507      6.58056         0.456029     -0.553814      2.388122
Ti       9.58110      5.92206     11.07159        -0.280288     -0.496854     -0.967548
Ti       9.58561      9.68946      2.27845         0.005912      0.714962      0.414744
Ti       9.51070      9.78100     15.26024         0.897277     -0.025913      0.385339
Ti       9.55288      9.67240      6.53449         0.534195      0.672064      1.336992
Ti       9.54050      9.72869     11.04947         0.202126      0.358429      0.753650
O       1.95880      1.88827      0.43195        -0.130013      0.295666     -0.819821
O       1.89984      1.77330     13.65198        -0.283062      0.550752     -0.610420
O       1.95447     13.59800      0.47505         0.101919     -0.770129     -1.341390
O       1.89922     13.39352     13.65747        -0.259176      0.379160     -0.630468
O      13.34136      2.02646      0.46399        -0.510254      0.049829      0.321152
O      13.61136      2.14516     13.49750        -0.070221      0.019168      0.246889
O      13.38147     13.49280      0.38603        -0.222009      0.285708      0.987341
O      13.41518     13.58696     13.58163         0.310736      0.195148     -1.351689
O       1.83831      2.01608      4.90531         0.105288     -0.460271     -0.301650
O       1.91224     13.52637      5.09593        -0.539563     -0.100491     -2.444513
O      13.26315      2.04348      4.79855         0.341120      0.187575     -0.321059
O      13.41336     13.60405      4.97013         0.366385      0.191309     -1.195271
O       1.87594      1.92602      9.30352        -0.026819      0.235578     -2.705884
O       1.97959     13.37296      9.13109         0.201213      0.413392      0.075258
O      13.45115      2.10761      9.31496        -0.256133      0.159963     -1.059470
O      13.35846     13.68316      9.30372         0.057495      0.011926     -1.202773
O       1.88326      5.69512      0.48398        -0.316393      0.070035      0.915803
O       1.73207      5.80776     13.62849         0.397521     -0.585269     -0.576098
O      13.39407      6.06506      0.55838        -0.275085     -0.669725      0.493964
O      13.46242      5.90680     13.51212        -0.258149     -0.044498      0.345646
O       1.94501      5.77141      4.89771         0.505526     -0.061208     -1.690824
O      13.35991      6.02664      4.89656        -0.028563     -0.294086     -0.614809
O       1.91894      5.72793      9.17667         0.074752     -0.015462      0.678615
O      13.33675      5.85697      9.20330        -0.147058      0.001225     -0.687276
O       1.87352      9.58007      0.43559         0.046899      0.098731     -0.519043
O       1.72573      9.46261     13.70792         0.112221      0.368416     -0.648449
O      13.31010      9.82027      0.58657         0.298117      0.212294     -1.097806
O      13.52827      9.68811     13.66727        -0.338799      0.322300     -1.698417
O       1.87863      9.54270      4.96678         0.145513      0.292735     -1.459383
O      13.54126      9.65770      5.02019        -0.273203      0.383345      0.846406
O       1.66064      9.47277      9.38002         0.317484      0.021978     -3.982169
O      13.40253      9.88768      9.23559        -0.044757     -0.408564     -1.774187
O       5.82244      2.09576      0.57341        -0.147386     -0.155105     -2.108591
O       5.85934      1.86960     13.53048        -0.291955      0.601482      0.203638
O       5.68268     13.48269      0.57168        -0.102265      0.073143     -2.180716
O       5.61267     13.44600     13.50809         0.159136      0.105744     -1.193674
O       5.67344      2.06253      4.90447        -0.072654      0.046881     -0.953242
O       5.69232     13.36506      4.77173        -0.102285      0.256866     -0.712713
O       5.73195      1.87268      9.21648         0.037627      0.415701      0.055820
O       5.67923     13.39914      9.01576         0.025236      0.541453      0.826665
O       5.81908      5.95866      0.60031        -0.124407     -0.039766     -0.000223
O       5.62278      5.85083     13.56571         0.813905     -0.361736     -0.399119
O       5.68782      5.80586      4.89145        -0.158290      0.084822     -1.976397
O       5.73506      6.11442      9.41210        -0.377243     -0.500964     -0.248071
O       5.71075      9.68893      0.37348        -0.246444     -0.134587      0.775708
O       5.70322      9.82206     13.54527         0.254658     -0.321289     -0.560864
O       5.69355      9.70227      4.89729         0.234656     -0.197974     -1.899994
O       5.76294      9.50148      9.38972        -0.636813      0.265017     -0.157435
O       9.55625      1.99517      0.47651         0.363574     -0.026750     -0.232961
O       9.41381      1.95709     13.60985         0.249990      0.165205     -0.504384
O       9.52909     13.47161      0.40034        -0.134120     -0.012689      0.755011
O       9.59045     13.60859     13.56079         0.013604     -0.522889     -1.871673
O       9.50548      2.00886      4.92499         0.354409     -0.206484     -1.903504
O       9.55504     13.51736      4.80344         0.359384      0.084570     -0.155140
O       9.46784      2.01364      9.25736         0.198824      0.242528     -0.590366
O       9.55987     13.53726      9.16674         0.131112     -0.146001     -0.750200
O       9.75582      5.99148      0.46199        -0.098011     -0.039696     -0.169063
O       9.66376      5.90317     13.51570        -0.580011     -0.031620     -0.679062
O       9.57896      5.97961      4.90861        -0.332923     -0.115256     -2.883446
O       9.52951      5.89938      9.26101         0.465009      0.011688      0.013606
O       9.64131      9.81749      0.53517         0.019339     -0.239955     -0.398175
O       9.65474      9.89356     13.48883        -0.626153     -0.311242     -0.053849
O       9.50649      9.78801      4.79777         0.034080     -0.302468     -1.456256
O       9.59308      9.81316      9.36034         0.321412     -0.320717     -1.910284
O       3.82933      1.96614      2.54514        -1.263397     -0.005615      0.439138
O       3.80437      1.94118     15.77769         0.764257      0.247666     -0.060409
O       3.77707     13.45735      2.77834        -0.257655     -0.053940     -0.162424
O       3.81661     13.49273     15.75868         0.070524     -0.049303      0.117677
O      15.31846      2.23905      2.39987        -0.452054     -0.975802      0.734534
O      15.27777      2.08766     15.84253         1.305361      0.164850     -0.206824
O      15.27459     13.67040      2.56546         0.042231      0.267593      0.662564
O      15.29623     13.63530     15.87279         0.337222      0.561962     -0.535021
O       3.87967      2.01849      7.07638        -1.188765     -0.140992      0.296296
O       3.84911     13.52791      6.98144        -0.212677     -0.630628      0.464182
O      15.33630      1.96935      7.06737        -0.911500      1.004760     -0.013097
O       0.00122     13.51313      7.19105        -0.807895     -0.052799      0.038905
O       3.81347      1.93796     11.40082         0.196303      0.478351      0.166758
O       3.86537     13.52199     11.32333        -0.871474     -0.111540     -0.032090
O      15.31465      2.19090     11.37178         0.607443      0.271292      0.208992
O      15.34547     13.52792     11.28515         0.852138      0.582655      0.460603
O       3.76691      5.76081      2.59988        -0.310896      0.263842      0.649479
O       3.87163      5.86709     15.81847        -0.505251     -0.578696     -0.361892
O      15.34967      5.89927      2.79943        -0.325495      0.674675     -0.237013
O      15.22187      6.05350     15.79540         0.805978     -0.735399     -0.030151
O       3.82310      5.72623      7.13417        -0.397957      0.382365     -0.139878
O      15.32841      5.97300      6.85620        -0.105234     -0.038618      0.698017
O       3.84114      5.81345     11.58156        -1.488124     -0.127974     -0.411344
O      15.35872      5.79319     11.21221        -0.901964      0.145876      0.401096
O       3.80065      9.81650      2.55729        -0.639997     -0.680176      0.256161
O       3.82073      9.54268     15.64274         0.056824      0.708418      0.450912
O      15.34714      9.76632      2.75789         0.056753      0.565192     -0.272659
O      15.31668      9.73119     15.86224        -0.154868      0.105051      0.415606
O       3.86135      9.74302      7.05857        -0.534839     -0.532650      0.235321
O       0.00658      9.51309      7.08264         0.050942     -0.245440      0.521635
O       3.68924      9.46833     11.56377         1.306070      0.488870     -0.274088
O      15.29534      9.92337     11.52161        -0.269419     -0.340497     -0.291294
O       7.68979      1.91074      2.66877         0.008461      0.686485      0.322431
O       7.67265      2.08718     15.85384        -0.584698     -0.601420     -0.200270
O       7.63149     13.47080      2.55829         0.813011      0.319842      0.318501
O       7.58808     13.59570     15.68669         0.469049     -0.627525      0.122573
O       7.64185      2.02221      6.98303        -0.154251     -0.030188      0.672447
O       7.63971     13.55093      6.95906         0.269701     -0.255770      0.017821
O       7.63291      2.03112     11.39240        -0.487636      0.076532      0.078776
O       7.62670     13.55511     11.25549        -0.514146     -0.429959      0.115888
O       7.69753      5.89530      2.76008         0.134764      0.449572      0.171400
O       7.73285      5.95235     15.76169         0.036368     -0.613974     -0.492519
O       7.58646      5.92512      7.05760         1.137189     -0.328376     -0.066717
O       7.69268      5.80875     11.32535        -0.398808      0.076294      1.354257
O       7.59882      9.70827      2.48383         0.860962     -0.377296      0.808192
O       7.60381      9.67605     15.67452         1.650774      0.096139      0.114483
O       7.70504      9.79084      7.05988        -0.299215     -1.066186     -0.309128
O       7.61471      9.74295     11.29986         0.367618      0.348856      1.267324
O      11.45317      2.12242      2.68055         0.133697      0.061548      0.073098
O      11.49483      1.99049     15.63232         1.646903     -0.217291      0.361927
O      11.47320     13.50892      2.49774         0.260315     -0.078493      0.580267
O      11.49328     13.48046     15.70211         0.081512      0.471829     -0.139330
O      11.46667      1.99153      7.05439        -0.140919      0.281932      0.056502
O      11.53257     13.59535      6.99352        -1.088670     -0.166941      0.291827
O      11.49990      2.02337     11.57176        -0.252585      0.051919     -0.437523
O      11.47043     13.68942     11.28456         0.402522     -0.367820      0.723785
O      11.48390      6.00369      2.79065         0.627482     -0.761448     -0.255736
O      11.53701      5.88948     15.77458        -0.979334      0.007142     -0.090808
O      11.45918      5.93270      6.88859         0.349146     -0.218457      1.091093
O      11.44064      5.91172     11.45374         0.291265      0.775693     -0.205950
O      11.59450      9.85284      2.72081        -1.976600     -0.028352      0.328895
O      11.49282      9.75975     15.68231        -0.949457      0.442734      0.266319
O      11.45228      9.80910      7.02401         1.034851     -0.344190      0.454088
O      11.49759      9.68050     11.46430         0.092500      0.243526     -0.168279
O       1.80430      3.79752      2.66780         0.660283      0.448340      0.118361
O       1.90958      3.86585     15.79278        -0.450260     -0.474978     -0.296247
O       1.86932     15.29954      2.50326        -0.235594      1.339380      1.156680
O       1.89598      0.03055     15.80271        -0.317563     -0.632433      0.069517
O      13.47591      4.05568      2.60737        -1.068931     -0.442749      0.564276
O      13.42845      3.93572     15.74818        -0.286982      1.237682     -0.009542
O      13.26883     15.54336      2.58931         0.342144     -0.864964      0.156360
O      13.38938     15.54855     15.66878         0.150383      0.065712      0.144432
O       1.85740      3.84763      7.05753         0.075525     -0.580106      0.348028
O       1.86284     15.37304      7.11293         0.769597      0.569444      0.433452
O      13.32526      3.95658      6.95215         0.415070      0.445044      0.293614
O      13.32579     15.54168      7.06134         0.474130      0.580014      0.270066
O       1.91348      3.82798     11.32534         0.507264     -0.641292      0.842014
O       1.98376      0.03726     11.29805        -0.623206     -1.392767      0.388857
O      13.18560      4.11603     11.43227         1.261992     -1.076646     -0.220787
O      13.49752      0.22877     11.50070         0.013380     -0.612785     -0.038619
O       1.93907      7.76320      2.74610         0.113626     -0.571627     -0.317044
O       1.87695      7.66538     15.82201         0.002983     -0.850513      0.303960
O      13.37524      7.92198      2.66134         0.213617     -0.881811      0.412827
O      13.32070      7.87023     15.72795         0.046161     -1.081877      0.245752
O       1.97960      7.64082      6.99271        -0.193462      1.763055      0.587456
O      13.40291      7.78903      7.24353        -0.300050      0.947252      0.027346
O       1.79589      7.62159     11.35019        -0.245635     -0.560258      0.296714
O      13.38200      7.83160     11.35217         0.321352      0.402491     -0.170243
O       1.82731     11.55428      2.63115        -0.109762     -0.401007      0.188180
O       1.84957     11.52249     15.71113         0.173298      0.164619      0.533245
O      13.49377     11.72372      2.80272        -0.123963      0.368257     -0.207424
O      13.53467     11.69111     15.76505        -0.489509      0.085243     -0.270411
O       1.80724     11.53931      7.12699         0.298106     -0.856593      0.018492
O      13.49976     11.78872      7.14972        -0.055536     -1.378908      0.211725
O       2.02964     11.54422     11.26028        -0.156061      0.372385      0.310531
O      13.34317     11.70808     11.41345        -0.270796     -0.171724      0.036591
O       5.66608      3.96908      2.66990         0.523343     -0.624841      0.506322
O       5.80295      3.89754     15.81131        -0.284913      0.161295     -0.439426
O       5.70378      0.09735      2.61719        -0.030165     -0.511343      0.443289
O       5.76535      0.08801     15.73108        -0.172987      0.109946      0.079549
O       5.73941      4.03518      7.10413         0.258405     -1.622143      0.455568
O       5.70966     15.38642      6.86971         0.049678      0.385989      0.369446
O       5.73572      3.97341     11.39246        -0.136864     -1.351404      0.182930
O       5.65602     15.35364     11.32802         0.368824      1.131311     -0.097300
O       5.65286      7.73633      2.70579        -0.054869      1.386613      0.524768
O       5.78790      7.74662     15.74724         0.030388     -0.340175      0.034655
O       5.71938      7.72345      7.03018        -0.153916      1.033941      0.174952
O       5.82082      7.76455     11.52931        -0.202296      0.099987      0.907202
O       5.74089     11.58111      2.55484        -0.031644     -0.503825      0.421617
O       5.81292     11.60288     15.60879        -0.545795      0.638700      0.538982
O       5.81363     11.55760      6.99081        -0.472846      0.324164      0.204869
O       5.64608     11.64021     11.32081        -0.074039     -0.631672      0.288444
O       9.54367      4.00368      2.58233         0.332966     -0.085807      0.319123
O       9.68936      3.88391     15.69743        -0.349984      1.591627      0.455343
O       9.61785     15.43683      2.68709         0.079812     -0.204493     -0.012171
O       9.48024     15.44108     15.61527         0.387842     -0.127099      0.820366
O       9.59251      3.95436      6.86297        -0.286253      0.266505      0.787236
O       9.51805     15.41830      7.02071         0.317305      0.479249      0.107317
O       9.59883      3.91501     11.31830        -0.073681      1.123765      0.619396
O       9.58701     15.43321     11.25741        -0.348269      1.017301      0.813355
O       9.61317      7.82119      2.62710        -0.029518      0.701065      0.312300
O       9.62138      7.86969     15.54653         0.128335     -0.350939      0.292111
O       9.67264      7.81107      6.90203        -0.506860      0.208258      0.641842
O       9.44063      7.83824     11.42097         0.543990     -0.447434      0.293720
O       9.59307     11.62991      2.68043        -0.131211     -0.281982      0.076077
O       9.57824     11.63486     15.72652        -0.577777     -0.215316     -0.007711
O       9.60423     11.58889      6.90717        -0.090519      1.082970      0.389104
O       9.58291     11.68253     11.34854         0.141655     -0.640147      0.773947
