  # total energy = -7880.78656396 
CRSYTAL
PRIMVEC
    15.3600000000000000    0.2300000000000000    0.0000000000000000
     0.0000000000000000   15.3600000000000000    0.0000000000000000
     0.0000000000000000    0.0000000000000000    17.440000000000000
PRESSURE
-0.036827 -0.193355 -0.128497 -0.008179 0.199623 -1.59277
PRIMCOORD
320 1
Pb       3.80120      3.84374      4.27054        -0.097734      0.025948     -0.142549
Pb       3.75621      3.95191     17.35883        -0.002023     -0.154383     -0.770616
Pb       3.69855      0.06112      4.46388         0.064352      0.061568     -0.725170
Pb       3.70255     15.36408     17.33692         0.417343     -0.039120     -0.380997
Pb       0.07213      3.77065      4.31117        -0.038391      0.174180     -0.340507
Pb      15.35263      3.97601     17.31062        -0.303313      0.907919     -0.797931
Pb      15.27875      0.35950      4.38103         0.747749     -0.688881     -0.367331
Pb      15.29373     15.51240     17.32117         0.336686     -0.182860     -0.429948
Pb       3.82692      3.99358      8.67240        -0.176975     -0.092000      0.386597
Pb       3.69329      0.15024      8.83191         0.332499     -0.194521     -0.504561
Pb       0.04853      4.12306      8.86934         0.273079     -0.437235     -0.407506
Pb      15.34831     15.58368      8.75862         0.076241      0.318467     -0.653054
Pb       4.02381      3.99851     13.07555        -0.644044     -0.253026     -0.346660
Pb       3.82736      0.18402     13.10014         0.064160     -0.159910     -0.747837
Pb      15.32178      4.10093     13.03687         0.006716      0.000667     -0.074395
Pb      15.29388      0.26864     13.09112         0.226575     -0.140435     -0.468258
Pb       3.89182      7.72563      4.34379        -0.336098      0.017797     -0.914919
Pb       3.80014      7.77531      0.01100         0.082934     -0.592447      0.051515
Pb      15.21931      7.70610      4.28827         0.533583      0.722339     -0.799680
Pb       0.02125      7.60393     17.35016        -0.303078     -0.460290     -0.151966
Pb       3.72337      7.77936      8.55423         0.414722     -0.459079     -0.172016
Pb      15.17151      8.07555      8.62271         0.722452     -0.530552     -0.019191
Pb       3.92156      7.82543     12.94447        -0.155089     -1.201253      0.093086
Pb      15.34093      7.94902     13.06393        -0.076700     -0.584659     -0.693926
Pb       3.88359     11.52159      4.29738        -0.271306      0.087536     -0.438145
Pb       3.86554     11.54114     17.41764        -0.023050      0.557874     -0.071197
Pb       0.02357     11.48568      4.28515         0.073284     -0.047683     -0.848117
Pb       0.15249     11.46950      0.01735        -0.248769     -0.033588     -0.112800
Pb       3.63881     11.54142      8.64247         0.760785      0.314536     -0.266320
Pb      15.20233     11.77583      8.53245         0.463186     -0.250882      0.217972
Pb       3.91041     11.49183     12.99596        -0.157799      1.009266     -0.378949
Pb      15.32489     11.65131     13.03812        -0.010099      0.432924     -0.827329
Pb       7.54835      3.75903      4.35099         0.486857      0.218201     -0.164265
Pb       7.53105      3.97933      0.02544         0.733278      0.168910     -0.652976
Pb       7.45685      0.14499      4.41392         0.534566      0.179922     -0.415575
Pb       7.65693      0.14157     17.43214        -0.092779     -0.683102     -0.629171
Pb       7.69500      3.97572      8.64645        -0.037949     -0.026925      0.109749
Pb       7.73494      0.17219      8.78094        -0.264529     -0.488865     -0.702276
Pb       7.72466      3.86297     13.02188        -0.038814     -0.013427     -0.022593
Pb       7.65941     15.26216     13.17355         0.125767      0.340982     -0.499755
Pb       7.63046      7.69784      4.41395         0.210090      0.131595     -0.919893
Pb       7.75099      7.75616      0.21469         0.048420      0.015333     -1.031892
Pb       7.72501      7.94805      8.57410        -0.143042     -0.240864     -0.268086
Pb       7.60344      7.78077     13.04440         0.187322     -0.127068     -0.677442
Pb       7.65989     11.81285      4.47730         0.159413     -0.393524     -0.263663
Pb       7.65755     11.55655      0.11453         0.064503      0.496264     -0.860457
Pb       7.59612     11.71696      8.73747        -0.037963      0.140704     -1.043389
Pb       7.71748     11.51710     13.15619        -0.266851      0.414658     -0.972277
Pb      11.54743      3.95667      4.32639        -0.209694      0.000370     -0.419078
Pb      11.39491      3.85175     17.42693         0.231807      0.570493     -0.850693
Pb      11.54192      0.26462      4.34357        -0.704627     -0.476808     -0.420673
Pb      11.40761     15.34791      0.01646         0.032840     -0.035600     -0.921831
Pb      11.51652      3.96057      8.77707         0.008440      0.279031     -0.623924
Pb      11.62380      0.20220      8.75784        -0.641910     -0.239855     -0.779136
Pb      11.43951      3.82255     13.08896         0.300902      0.898907     -0.160852
Pb      11.53214     15.37824     13.07389         0.064930      0.000784     -0.474847
Pb      11.51457      7.82650      4.25800         0.108362      0.104843     -0.246472
Pb      11.53608      7.70916      0.04485         0.439988     -0.025018     -0.562528
Pb      11.52134      7.88118      8.55490        -0.641463     -0.226121     -0.392761
Pb      11.36953      7.73272     13.13162         0.605540     -0.309193     -0.632319
Pb      11.61603     11.71215      4.22332        -0.459280      0.192711      0.069175
Pb      11.55998     11.52243      0.04010         0.029281     -0.150041     -0.470522
Pb      11.43895     11.65897      8.63566        -0.152567     -0.040212     -0.804028
Pb      11.50228     11.53197     13.07275         0.316789      0.319742     -0.532965
Ti       1.81093      1.96422      2.05382         0.909326     -0.790047      1.464547
Ti       1.89480      1.94432     15.27498         0.322567      0.776165      0.385659
Ti       1.90301     13.54528      2.40063        -0.268394     -0.868137     -0.349518
Ti       1.95441     13.40601     15.23526         0.082089      0.356265      0.587742
Ti      13.38029      2.06495      2.17396         0.255456      0.920741      0.099504
Ti      13.44627      2.08467     15.32832        -0.339651      0.162636     -0.380332
Ti      13.43654     13.72248      2.29192         0.062132     -1.331174      0.151889
Ti      13.49795     13.52462     15.34352        -0.648840      0.321830      3.227587
Ti       1.81980      2.06618      6.76853        -0.005199     -1.096544      1.356357
Ti       1.89668     13.49619      6.66472         0.298688      0.821581      0.940902
Ti      13.39206      2.12869      6.59451         0.110426     -0.376690      3.342272
Ti      13.41654     13.69913      6.65270        -0.217112     -0.097180      0.856092
Ti       1.91115      1.91053     11.01997         0.767022      0.834368      0.642493
Ti       1.95022     13.44595     10.93029        -0.270380      0.020812     -0.104047
Ti      13.45533      2.10463     10.96741         0.342466      0.427404      2.636496
Ti      13.44064     13.56824     10.86944         0.456678      0.139503      1.790435
Ti       1.88042      5.70226      2.19276         0.686463      0.929052      0.990386
Ti       1.99481      5.78369     15.27701        -1.616580     -0.885365      1.558852
Ti      13.42883      5.78345      2.26175         0.228829      1.519606     -1.440751
Ti      13.39175      5.88356     15.31168         0.907524      0.017130      0.561605
Ti       1.90932      5.81302      6.53956        -0.094933     -0.506272      0.826026
Ti      13.39955      5.89713      6.58235         0.036692     -0.274268      0.975357
Ti       1.92577      5.73232     11.09920         0.305170      0.748995     -1.590569
Ti      13.42119      5.95026     11.01370        -0.385017     -0.694190      0.788502
Ti       1.95070      9.59257      2.25271        -0.369749     -0.001661      1.400158
Ti       2.05591      9.54230     15.31298        -1.837441      0.242670      2.520826
Ti      13.42235      9.78465      2.30687         1.242276     -0.580981      0.164590
Ti      13.51196      9.70868     15.43190        -0.304039     -0.070461      0.235564
Ti       1.92257      9.64102      6.48136         0.048572     -0.622233     -0.235932
Ti      13.39930      9.76656      6.50483        -0.131149      0.662457      0.016164
Ti       1.93837      9.59466     10.95343        -1.105472     -0.540872      0.162157
Ti      13.45285      9.74973     10.96031        -0.464010     -0.051890      0.341152
Ti       5.63863      2.03219      2.17062         0.228660     -0.774797      1.279897
Ti       5.81198      2.06352     15.42981        -0.490970     -0.624135     -1.332961
Ti       5.69250     13.59073      2.32531        -0.107589     -0.347280      0.249955
Ti       5.72728     13.55319     15.28962         1.102055     -0.104331      1.013406
Ti       5.70799      1.99569      6.77095         0.276545     -0.390000      0.605982
Ti       5.69719     13.57900      6.70385         0.615767     -0.208807      0.431915
Ti       5.81622      1.96449     11.02722        -0.938776     -0.042474      0.812778
Ti       5.73842     13.53204     11.00179        -0.107257     -0.249688     -0.701897
Ti       5.77263      5.79385      2.22082        -0.159815      0.715451      1.825828
Ti       5.76681      5.89489     15.34984         0.364687     -0.474829      0.758918
Ti       5.79279      5.80814      6.55409        -0.406727      0.814535      2.975727
Ti       5.84196      5.82856     10.98601        -0.396095      0.287976      0.844821
Ti       5.79127      9.71960      2.26519        -0.187630     -0.158469      1.037518
Ti       5.79379      9.63934     15.42404         0.686131      0.327952     -0.099834
Ti       5.77576      9.72044      6.55707        -0.041000     -0.102421      1.313616
Ti       5.71115      9.70316     10.93205         1.284250     -0.060778      0.578605
Ti       9.52314      2.05845      2.28117        -0.094880     -0.756878      3.269187
Ti       9.56176      2.01482     15.36639        -0.043903      0.314436      0.491680
Ti       9.50125     13.59686      2.34601         0.508859      0.272416      0.436630
Ti       9.58344     13.45121     15.39088        -0.928996      0.948461      0.253512
Ti       9.52981      2.01218      6.66086         0.801042     -0.834019     -0.053000
Ti       9.59685     13.62094      6.54179        -0.350920     -0.509939      2.642099
Ti       9.57010      1.93391     11.09759        -0.002875      0.190044      1.254564
Ti       9.60928     13.47503     10.93192        -0.098686      0.632452      1.123723
Ti       9.69884      5.83926      2.26609        -1.470139      0.035388      0.296578
Ti       9.58816      5.92335     15.33938         0.093573     -1.444881      2.137065
Ti       9.56917      5.84576      6.49466         0.482799      0.601001      2.179171
Ti       9.65297      5.86968     10.95932         0.238263     -0.334399      1.802200
Ti       9.61404      9.73094      2.33541        -0.352892      0.681468      0.244404
Ti       9.62029      9.65227     15.37859         0.267487      0.246764      1.041362
Ti       9.58853      9.76629      6.42869        -0.347938      0.052763      0.406351
Ti       9.64125      9.73446     11.00765        -0.461552     -0.703961     -0.066883
O       1.92613      1.89529      0.30512        -0.037883      0.340092      0.161724
O       1.78993      1.84501     13.51097         0.364175      0.197116      0.040475
O       1.92328     13.46429      0.63933         0.146427      0.169038     -0.791193
O       1.97617     13.46767     13.49352        -0.171448     -0.215122      0.488123
O      13.24592      2.17501      0.42033         0.560329     -0.601772      0.311016
O      13.59181      2.11096     13.52586        -0.222437     -0.145276      1.195170
O      13.41780     13.66901      0.51846         0.033588      0.145173      0.343130
O      13.51431     13.58471     13.66972        -0.008203     -0.417543     -1.782710
O       1.80538      1.93135      5.01295         0.046351      0.140560     -0.116831
O       1.83937     13.73992      4.89700         0.076739     -0.506941      0.153042
O      13.46767      2.04439      4.88582        -0.122538      0.189317     -1.837402
O      13.40057     13.69092      4.90779         0.341465      0.456907     -0.736696
O       2.04242      2.04068      9.26797        -0.438271     -0.240084     -0.513221
O       2.03887     13.41290      9.08625        -0.086847     -0.073360      1.699864
O      13.34394      2.01162      9.24816        -0.164176      0.311024     -0.251190
O      13.30318     13.61669      9.10949         0.510082     -0.264274      0.410494
O       1.94527      5.62367      0.41203        -0.007569      0.197321      1.186525
O       1.97770      5.71917     13.56194        -0.219550      0.619574     -1.467491
O      13.29412      5.75467      0.47324         0.368883      0.196090      0.970471
O      13.53284      6.05868     13.55165        -0.157274     -0.086056     -0.181171
O       1.94171      5.64040      4.78041        -0.262564      0.114311      0.519475
O      13.45777      5.95821      4.83977        -0.223592     -0.229293     -0.689339
O       1.92322      5.74565      9.22002        -0.083918     -0.092925      0.974910
O      13.34992      5.72462      9.25030        -0.150858      0.510093     -0.875565
O       2.05760      9.68506      0.49469        -0.121897     -0.221199     -0.616826
O       1.76557      9.60492     13.62395         0.292168     -0.185628     -1.276309
O      13.39258      9.77034      0.55545        -0.121767      0.208695     -0.735598
O      13.60662      9.72742     13.63282         0.004704      0.087033      0.406412
O       1.93273      9.64157      4.70964        -0.196320      0.103580      0.840428
O      13.51656      9.76932      4.73794        -0.279956     -0.079204      0.387611
O       2.00818      9.59504      9.21056        -0.205443     -0.002916     -0.589083
O      13.39141      9.87438      9.21268         0.044937     -0.362050     -1.293989
O       5.77620      2.07290      0.43648        -0.333790      0.108016     -0.362499
O       5.98141      2.08127     13.59948        -0.438965     -0.268603      1.128001
O       5.69284     13.50858      0.59086         0.027950      0.119034     -0.196438
O       5.84299     13.45677     13.51080        -0.099826     -0.032460      0.341694
O       5.76287      2.02908      5.01777         0.050338     -0.109153     -0.757619
O       5.78806     13.57630      4.89911        -0.375998      0.060680     -0.023037
O       5.74628      2.02964      9.28926         0.454642     -0.149594     -0.482237
O       5.74090     13.47573      9.18241         0.069068     -0.013676      0.840117
O       5.63574      5.75394      0.46137         0.353906      0.163761      0.807669
O       5.83963      5.90549     13.57499         0.061684      0.019233      0.260180
O       5.86006      5.87866      4.84492        -0.219540     -0.224246     -0.677957
O       5.77376      5.81523      9.26047        -0.029736      0.142273     -0.092627
O       5.75564      9.59130      0.50444        -0.259227      0.217298     -0.662743
O       5.88372      9.60581     13.61551        -0.328836      0.355800      0.990647
O       5.75686      9.70155      4.81532         0.045273      0.078833     -0.841256
O       5.70249      9.52471      9.20550        -0.084695      0.502732     -0.309333
O       9.60691      2.00639      0.60857        -0.004441     -0.077481     -2.402601
O       9.43220      2.09945     13.61475         0.290073     -0.474600     -0.424124
O       9.43902     13.74176      0.56667         0.373606     -0.676612      0.111787
O       9.52552     13.53288     13.60801         0.050756     -0.544821      0.313723
O       9.41422      1.95508      4.89141         0.603633      0.359957      0.154727
O       9.39321     13.61015      4.84567         0.663535      0.092060     -1.469903
O       9.53315      1.76801      9.38814         0.360093      0.632204     -1.174547
O       9.71672     13.45579      9.16824        -0.484058     -0.156850      0.450101
O       9.69650      5.81225      0.46352        -0.032248      0.469909      1.292657
O       9.58285      5.89947     13.61264        -0.074639      0.394326     -0.817827
O       9.52504      5.84187      4.77397         0.309916     -0.032476     -0.248162
O       9.79620      5.79721      9.25958        -0.127381      0.288567     -1.417540
O       9.68479      9.78202      0.50890        -0.074559     -0.287033      0.478605
O       9.61303      9.64976     13.58252        -0.061774      0.270391      0.349612
O       9.49910      9.81683      4.67784         0.305328     -0.407690     -0.221805
O       9.65871      9.83288      9.24930         0.186519     -0.256340      0.130180
O       3.76700      2.06434      2.61129         0.219319     -0.285864     -0.232575
O       3.88389      1.92164     15.60203        -0.707920      0.426324      0.188113
O       3.76461     13.68198      2.77179         0.925185     -0.421250      0.380090
O       3.89125     13.52954     15.80536        -1.508513      0.160968     -0.343988
O      15.32948      2.24831      2.49324        -0.493034     -0.141670      0.208617
O      15.32103      2.18592     15.77285         0.285981     -0.363715     -0.001296
O       0.01550     13.43327      2.70009        -1.248910      0.073844      0.321347
O       0.04710     13.25054     15.79372         0.422002      0.550048     -0.317091
O       3.89559      1.98723      7.14380        -1.770936      0.363144     -0.166034
O       3.84032     13.52267      6.99500        -1.092862     -0.344589     -0.157861
O      15.29381      2.10790      7.21805         0.283154      0.317773     -0.720972
O       0.04992     13.52342      7.20334        -0.785105     -0.576259     -0.648889
O       3.85195      1.83766     11.36183         1.044851      0.494842      0.738172
O       3.82779     13.48047     11.49369         0.154886     -0.150083     -0.324211
O       0.04813      1.94674     11.34852        -0.787561     -0.292519     -0.128406
O       0.02957     13.43054     11.29121         0.038959      0.052066     -0.234890
O       3.82820      5.82284      2.75566         0.477047     -0.726844     -0.601226
O       3.81663      5.76272     15.76318         1.202994      0.099470     -0.153588
O      15.33547      5.84062      2.70961         0.372721      0.406297     -0.323625
O       0.01788      5.63818     15.74899        -0.272217      0.596870      0.136963
O       3.83232      5.77465      7.11942         0.005157      0.115022     -1.133542
O      15.29697      5.91196      6.95225         0.167551      0.147441      0.199994
O       3.89292      5.83531     11.58234         0.647493      0.455222     -0.566582
O       0.01385      5.70750     11.31780         0.041805     -0.015812      0.361383
O       3.82881      9.69733      2.68992         0.641986     -0.654573      0.145934
O       3.83549      9.47160     15.83764         0.796480      0.625387     -0.694200
O       0.04782      9.57171      2.60044        -0.488060      0.335524      0.193865
O       0.04920      9.51437     15.95189         0.190065      0.289572     -0.705199
O       3.80453      9.62878      6.84916        -0.430755     -0.103688      0.313719
O      15.29473      9.80820      6.98523         0.310029     -0.020000      0.034810
O       3.80511      9.59316     11.48494         0.360338      0.531101     -0.449214
O      15.30047      9.71458     11.25598         1.519302      0.213822      0.733780
O       7.64112      1.97518      2.74807        -0.331716      0.685010     -0.517257
O       7.65807      2.18784     15.91503         0.600193     -0.973009     -0.029943
O       7.63505     13.41277      2.76690        -0.482192      0.682228     -0.439141
O       7.61310     13.49180     15.83039        -0.008968     -0.183600     -0.176824
O       7.69194      2.00563      7.14346        -0.722732     -0.071788      0.407140
O       7.68351     13.52792      6.94929        -0.438577     -0.393189      0.676322
O       7.68987      2.03676     11.41415         0.063265     -0.345997     -0.046028
O       7.67748     13.43342     11.31132         0.800975     -0.248748     -0.008171
O       7.73027      5.89373      2.71592        -0.638058      0.013372     -0.902473
O       7.70879      5.93211     15.99583        -0.353069     -0.145641     -0.755214
O       7.70938      5.97450      7.12767        -0.103031     -0.626378     -0.677166
O       7.76677      6.00110     11.35085        -0.861423     -0.358313     -0.093074
O       7.69044      9.77089      2.43653        -0.452960     -0.041416      0.316964
O       7.68198      9.63426     15.85449        -0.122193      0.004173     -0.132627
O       7.71660      9.70409      6.91839        -0.998259     -0.275750      0.409548
O       7.67775      9.70395     11.23109         0.484762      0.199807      0.582512
O      11.53444      2.15189      2.69806        -0.402015     -0.546205      0.276035
O      11.50515      1.99295     15.68223        -0.134336     -0.144631     -0.009493
O      11.48383     13.73287      2.65884         0.608874     -0.318952      0.198645
O      11.45078     13.66434     15.70386         0.817308     -0.396005      0.278589
O      11.46033      1.91120      7.05079         0.153212      0.399593     -0.289137
O      11.57026     13.69039      7.01239        -1.130717     -0.356691     -0.305000
O      11.58426      2.11782     11.60492        -0.519259     -0.865856     -1.034608
O      11.55920     13.62533     11.39079         0.269194     -0.494972      0.048012
O      11.56767      5.91199      2.68653        -0.936579      0.117481      0.462156
O      11.50982      5.84169     15.74456        -0.421192      0.357612     -0.208004
O      11.46426      5.98283      6.96734         0.024810     -0.441784     -0.181660
O      11.54655      5.75455     11.54954        -0.388834      0.494234     -0.157260
O      11.56377      9.77521      2.60937        -0.566208      0.011365      0.658821
O      11.55773      9.69627     15.70998        -0.280109      0.299481      0.081000
O      11.46720      9.73388      6.88783         1.431770      0.168461      0.101362
O      11.61067      9.83812     11.40673        -0.765247     -0.280731      0.510240
O       1.92620      3.79939      2.76351        -0.175002      0.378945     -0.682061
O       1.91958      3.89349     15.66847         0.277427     -1.313531      0.310339
O       1.81534      0.09711      2.66716         0.072944      1.085256      0.049062
O       1.82724      0.10327     15.70453         0.248876     -2.009633      0.079135
O      13.38389      4.01138      2.70232        -0.045759     -1.254012      0.406579
O      13.50034      4.02859     15.70181        -0.631264     -1.122372     -0.120137
O      13.48249      0.23683      2.73074        -0.163671      0.226018     -0.303759
O      13.52070     15.49056     15.72921         0.117599     -0.119343     -0.071016
O       1.81386      3.90640      7.17492         0.561090     -0.186860     -0.701090
O       1.88160     15.37669      7.25919         0.348591      0.636807     -0.543720
O      13.24840      3.96708      6.99798         0.160219      0.655957     -0.250942
O      13.42807      0.23291      7.18675         0.473611     -0.318224     -0.580048
O       2.05123      3.92847     11.43025        -0.142034     -1.566700      0.208910
O       2.05603      0.04634     11.34433        -0.798270     -1.021963     -0.173928
O      13.51389      4.06616     11.47653        -0.168147     -1.622538     -0.311053
O      13.51239     15.48980     11.61456        -0.598076      0.277345     -1.409273
O       1.93721      7.62902      2.66534        -0.226056     -0.337210     -0.468972
O       1.85638      7.60280     15.85609         0.497371      1.486491     -0.478500
O      13.40804      7.85817      2.58329         0.304081     -0.678981      0.628000
O      13.41037      7.73499     15.83818         0.364765      1.563262      0.216615
O       1.90344      7.67325      6.81150        -0.196432      0.325100      0.402655
O      13.45538      7.84225      6.95417        -0.301953      0.470506      0.275736
O       1.91063      7.66032     11.25044         0.303631      1.067721      0.948221
O      13.44726      7.79441     11.16663        -0.223775      1.120748      0.535696
O       1.94875     11.54041      2.68018        -0.111918      0.339467      0.376575
O       2.12236     11.55025     15.70581        -0.508353     -0.737774     -0.172245
O      13.41551     11.75323      2.75023         0.248877      0.262275     -0.307563
O      13.47169     11.60926     15.93342        -0.271628      0.361595     -0.714208
O       1.92485     11.46925      7.03521        -0.523903      1.036382     -0.486627
O      13.45757     11.75522      6.93818        -0.022307     -0.760800      0.014946
O       1.91026     11.52745     11.32882         0.198251     -0.426592      0.267559
O      13.55541     11.67853     11.40031        -0.382307      0.816932      0.048969
O       5.78482      3.89375      2.84730        -0.257114      0.397758     -1.087933
O       5.84292      3.97273     15.81437        -0.691059      0.252701     -0.220074
O       5.70746      0.17155      2.65132         0.235320     -0.287736      0.095198
O       5.73113     15.43238     15.75011         0.610482      0.385323     -0.089081
O       5.79065      3.94585      7.09617         0.415687      0.435468     -0.286440
O       5.66790     15.44006      7.13341         0.660536      0.074745     -0.163769
O       5.73968      3.89779     11.47971         0.514431      0.537603     -0.522875
O       5.89146     15.35630     11.50428        -0.445717      0.904598     -0.301218
O       5.76149      7.74365      2.75540         0.081189     -0.058703     -0.524269
O       5.68807      7.69582     15.81634         0.375370      0.952214     -0.030234
O       5.68553      7.80042      7.00679         0.489797     -0.759969     -0.209236
O       5.82131      7.83919     11.49895        -0.498974     -0.686183     -0.296688
O       5.61337     11.63966      2.65657         0.188649     -0.281344      0.033284
O       5.71336     11.62630     15.74676        -0.148094     -1.604686      0.021569
O       5.67953     11.56193      7.06875         0.388106      0.304843     -0.029427
O       5.70394     11.61496     11.40401         0.013152     -1.117978      0.086141
O       9.61048      4.00075      2.70687         0.172365     -0.456614     -0.129988
O       9.64135      3.91298     15.70689        -0.300697      0.494266      0.236660
O       9.54262     15.48050      2.75670         0.105133      0.480674     -0.158214
O       9.39000     15.41765     15.77638         0.526749      0.852315      0.044808
O       9.57619      3.85780      7.12658         0.151721      1.563329     -0.422126
O       9.48623     15.43174      7.11413         0.307387      0.348911     -0.197072
O       9.53868      3.91156     11.38618         0.413268      0.122154      0.029991
O       9.62004     15.37229     11.48246        -0.110453      0.254261      0.060217
O       9.59911      7.86701      2.85085         0.214611     -0.902010     -0.931348
O       9.65232      7.78103     15.87162        -0.119170      0.581959     -0.327180
O       9.63087      7.85794      6.91448        -0.232585     -0.929261      0.095018
O       9.80976      7.79070     11.40772        -0.463737      0.591235     -0.286249
O       9.67704     11.64005      2.80839        -0.132657      0.693898     -0.722309
O       9.56947     11.60285     15.83611         0.102177     -0.652540     -0.214330
O       9.52498     11.58107      6.90150         0.653137      1.439823      0.377427
O       9.71938     11.61597     11.49967        -0.348518      0.121262     -0.025162
