  # total energy = -7882.37340916 
CRSYTAL
PRIMVEC
    15.3600000000000000    0.0000000000000000    0.0000000000000000
     0.0000000000000000   15.3600000000000000    0.0000000000000000
     0.2400000000000000    0.0000000000000000    17.440000000000000
PRESSURE
0.546041 0.97277 -2.71938 -0.032984 -1.11017 -0.006392
PRIMCOORD
320 1
Pb       3.89637      3.75760      4.37491        -0.032715      0.334684     -0.191557
Pb       4.14063      3.84821     17.37753        -0.107966     -0.231686     -0.187194
Pb       3.98435      0.01171      4.34334        -0.456623     -0.424316     -0.124198
Pb       3.69925      0.02182      0.01013         0.074708     -0.201341     -0.331876
Pb      15.35378      3.86974      4.37144        -0.080633     -0.275227      0.379893
Pb       0.28799      3.83340     17.36113        -0.443377      0.026923     -0.248655
Pb       0.07996      0.15642      4.38598        -0.232677     -0.474561     -0.013887
Pb      15.46853     15.26472     17.43583         0.153939      0.062153     -0.265232
Pb       4.00419      3.77633      8.70284        -0.041987     -0.581715      0.200405
Pb       3.93943     15.35197      8.69919         0.314721      0.290683      0.177641
Pb       0.19909      3.78401      8.77107        -0.108107      0.052275     -0.680843
Pb      15.41783     15.31631      8.71010        -0.002553     -0.508125     -0.192384
Pb       4.05575      3.80150     13.00376        -0.097514     -0.164007      0.200749
Pb       3.97549     15.33012     13.07368        -0.403599     -0.163464     -0.271492
Pb      15.47887      3.92350     12.93828        -0.232696     -0.282775      0.304109
Pb      15.53396      0.16226     13.05691         0.081480     -0.430536     -0.072585
Pb       3.85346      7.69616      4.34635        -0.191698     -0.494518     -0.308968
Pb       3.92954      7.69543     17.39059         0.206858     -0.256493      0.457965
Pb       0.09437      7.58708      4.28400        -0.000248      0.249536      0.280633
Pb      15.50224      7.71939     17.43601         0.083947     -0.100307     -0.304251
Pb       3.94174      7.62191      8.70296         0.109074      0.377524     -0.407431
Pb      15.40893      7.61390      8.57176         0.233101      0.872126      0.119118
Pb       3.94797      7.72677     13.11746         0.583131     -0.175471     -0.629078
Pb      15.50582      7.61408     12.93354        -0.017659      0.306277      0.563103
Pb       3.93060     11.45128      4.33441        -0.219359      0.391617     -0.185063
Pb       4.00470     11.52632     17.27775        -0.524011     -0.086917      0.689505
Pb       0.10816     11.56847      4.45408        -0.207085     -0.282183     -0.271459
Pb      15.54018     11.46855     17.38901         0.304791     -0.037248     -0.130174
Pb       3.91057     11.49420      8.71331        -0.296833     -0.228339     -0.168060
Pb      15.41798     11.54007      8.71835        -0.114348     -0.341883     -0.191185
Pb       4.06553     11.58181     12.99564        -0.351136     -0.129859      0.283203
Pb       0.28880     11.56185     13.05020        -0.514459     -0.228845     -0.154248
Pb       7.77850      3.95236      4.34381         0.053956     -0.298525     -0.680736
Pb       7.86080      3.82718     17.35945         0.137313     -0.383973      0.009165
Pb       7.72313     15.31573      4.32074         0.007088      0.464614     -0.740058
Pb       7.52320     15.31755      0.00215         0.908310     -0.153474     -0.164718
Pb       7.85924      3.80898      8.66217        -0.581453     -0.107901      0.739929
Pb       7.71959      0.03965      8.77485        -0.171959      0.067511     -0.235440
Pb       7.89520      3.74956     13.08005        -0.175339      0.412648      0.148867
Pb       7.95540     15.14772     13.19744         0.083716      0.136755     -0.375337
Pb       7.68018      7.72721      4.31688         0.240262     -0.358711     -0.440860
Pb       7.88202      7.61349     17.40295        -0.025919     -0.265129     -0.104363
Pb       7.82845      7.69637      8.56388        -0.347034      0.825470      1.062161
Pb       7.74834      7.64873     13.09898         0.030116     -0.085628     -0.541418
Pb       7.55534     11.59400      4.38922         0.110513     -0.216690     -0.616071
Pb       7.90371     11.39320     17.31607         0.185746      0.668040      0.704544
Pb       7.89149     11.56240      8.67908        -0.205633     -0.490696     -0.287998
Pb       7.72707     11.42691     13.08086         0.300897      0.006764     -0.706927
Pb      11.50935      3.85161      4.22942         0.121975     -0.393479      0.502319
Pb      11.66799      3.81540      0.01112         0.109682     -0.001880     -0.460182
Pb      11.50538     15.29881      4.25024         0.293749      0.498859      0.165734
Pb      11.63419     15.13473     17.43905        -0.014167      0.478078     -0.329709
Pb      11.51824      3.78744      8.68493         0.355814      0.152178     -0.681632
Pb      11.60790     15.30028      8.68584        -0.092535     -0.086014     -0.304388
Pb      11.67602      3.85699     13.00385         0.201736     -0.101714      0.082991
Pb      11.74973      0.18900     13.03436        -0.572144     -0.590532      0.540546
Pb      11.54328      7.67097      4.20592        -0.195207     -0.200539      0.170297
Pb      11.48432      7.68356      0.02098         0.500021     -0.409105     -0.121975
Pb      11.64688      7.63412      8.67029         0.220719      0.267311     -0.280173
Pb      11.53750      7.67940     12.97391         0.061920     -0.640454      0.375847
Pb      11.47454     11.52996      4.42468         0.502895      0.038351     -0.160188
Pb      11.89885     11.33996     17.42573        -0.304723      0.544274      0.515830
Pb      11.59891     11.49637      8.77225         0.448223      0.187807     -0.570377
Pb      11.71401     11.54715     13.04070        -0.287211      0.278840     -0.178214
Ti       1.94819      1.88270      2.32208        -0.455174      0.300925     -0.174797
Ti       2.06288      1.88451     15.43979        -0.111209      0.350286     -1.554576
Ti       1.96879     13.38262      2.37678         0.220491      0.061447     -0.463928
Ti       2.09525     13.47208     15.40148        -0.443272     -0.673004     -0.504762
Ti      13.47678      1.78506      2.25001        -0.763624      1.298461     -0.872324
Ti      13.59119      1.89432     15.41747         0.122003     -0.219510      0.345243
Ti      13.56668     13.35629      2.38394        -0.904198      0.307740     -0.497516
Ti      13.63829     13.43184     15.34730        -0.252212      0.277985     -0.322542
Ti       1.97972      1.76166      6.69435         0.786291      1.047191     -0.544979
Ti       2.03688     13.37277      6.62423        -0.184173      0.123296     -0.444813
Ti      13.54672      1.88394      6.66816        -0.756432      0.731692      0.284137
Ti      13.48085     13.43606      6.67997        -0.131620     -0.750990     -0.679450
Ti       2.06009      1.91736     11.04938         0.454581     -1.070399     -0.824676
Ti       2.00142     13.36407     11.00863         0.045335      0.857395      0.705152
Ti      13.61518      1.82842     10.87382        -1.043495      0.631028      0.742578
Ti      13.52355     13.40033     11.16285         0.239559     -0.172731     -1.866211
Ti       1.89242      5.64611      2.33182         0.887520      0.721138      0.757608
Ti       2.17845      5.71089     15.33880        -1.427717     -0.283350      0.682794
Ti      13.44662      5.66844      2.32243         0.085954     -0.267563     -1.294537
Ti      13.73670      5.77433     15.32189        -0.404761     -0.465032      1.279799
Ti       2.11124      5.72904      6.73907        -1.203487      0.048995     -1.583371
Ti      13.62561      5.72600      6.70131        -1.473116     -0.776606     -1.218488
Ti       2.11124      5.74746     11.05513         0.555955      0.032418     -0.415401
Ti      13.58453      5.79658     10.89574        -0.673402     -1.230784      0.077595
Ti       1.93712      9.52384      2.29351        -0.460353      0.152913      0.484919
Ti       2.13238      9.54924     15.32422        -0.623336      0.406102      1.346778
Ti      13.47636      9.56335      2.44041         0.261181     -0.054640     -1.235035
Ti      13.59694      9.58458     15.32563         1.273442     -0.938780     -0.201977
Ti       2.04933      9.60629      6.64977        -0.789589      0.345261     -0.562196
Ti      13.49021      9.55988      6.53511         0.482707      0.363774     -0.329811
Ti       2.09898      9.56333     11.10196        -0.387597      0.884646     -2.033706
Ti      13.52211      9.54780     11.13917         0.956350      1.012710     -1.359446
Ti       5.78488      1.91697      2.32600         1.041236      0.616979     -0.885189
Ti       5.97437      1.83294     15.40383        -0.597662      0.669607     -1.360480
Ti       5.78921     13.44357      2.25000        -0.829537     -0.301928      0.555915
Ti       5.90298     13.37239     15.42813         0.262733      1.062103     -0.894288
Ti       5.86222      1.92385      6.66963        -0.650149     -1.160148     -0.004381
Ti       5.78345     13.38328      6.65731        -0.125559      0.440256      0.013988
Ti       5.91454      1.83984     11.19510        -1.023182      0.217185     -2.607227
Ti       5.86373     13.38852     11.02282        -0.163336      0.349756      0.470134
Ti       5.70851      5.71906      2.20896         0.206295      0.675180     -0.426443
Ti       5.93605      5.71547     15.36518         0.471848     -0.164302      0.138818
Ti       5.91484      5.68814      6.71056        -0.175076      0.826643     -1.128139
Ti       5.94410      5.69163     10.97516        -0.211211      0.384158      0.047781
Ti       5.75162      9.56453      2.31011         0.306138      0.292981     -0.183151
Ti       5.95194      9.52538     15.50187        -0.309584      0.305268     -1.744612
Ti       5.87803      9.54884      6.63874        -0.437299      0.559453      0.768399
Ti       5.90161      9.54609     10.96616        -0.052569     -0.277237     -0.050693
Ti       9.62373      1.87737      2.16622        -0.577099      0.267408     -0.467453
Ti       9.80908      1.88438     15.50655         1.185702     -0.724381     -0.865727
Ti       9.69142     13.38178      2.37434        -0.824795      1.038039     -1.112053
Ti       9.78822     13.32816     15.37310         0.069620      1.777066     -0.759856
Ti       9.63258      1.93493      6.67235         1.161828      0.285813     -1.123029
Ti       9.61033     13.48990      6.65305         1.319783     -0.165726      0.512571
Ti       9.67492      1.89820     11.09159         1.260564     -0.741429     -0.835382
Ti       9.73487     13.46496     10.98669         0.378408     -0.522658      0.527171
Ti       9.61911      5.69463      2.15514        -0.758127      0.633019      0.403529
Ti       9.88108      5.71401     15.48790         0.428648     -0.112081     -1.221624
Ti       9.72576      5.83343      6.70420         0.564169     -1.167079     -1.264106
Ti       9.75480      5.70017     10.99892         0.304988      0.474410      1.419199
Ti       9.57749      9.65845      2.32379         0.112327     -0.647897      0.251766
Ti       9.81902      9.56467     15.42807         0.308227     -0.340711     -0.413551
Ti       9.71447      9.60406      6.58925        -0.390451      0.184994     -0.483068
Ti       9.74358      9.61991     11.06074        -1.012405      0.033266     -0.605117
O       1.81845      1.95433      0.52405         0.581567     -0.096653      0.709946
O       2.04562      1.88916     13.61931         0.142157     -0.299590     -0.321156
O       1.80127     13.37366      0.56216         0.466364      0.183696      1.109356
O       2.20498     13.43439     13.60932        -0.564657      0.218039      0.782603
O      13.46188      1.86567      0.42260         0.116524     -0.040038      1.157915
O      13.40414      1.81831     13.66470         0.891983      0.255116     -0.785221
O      13.56873     13.32704      0.54914        -0.208005      0.137638      1.261366
O      13.48288     13.37190     13.55003         0.605616     -0.100713      0.568592
O       1.94178      1.91532      4.91199         0.205292     -0.104357      0.286162
O       2.14254     13.44747      4.83926        -0.482009     -0.376267      0.328447
O      13.61788      1.92352      4.91868        -0.245304     -0.294646     -0.091892
O      13.37669     13.45726      4.89096         0.287476     -0.105055      0.540952
O       2.10151      1.80144      9.25058        -0.605674      0.302542      0.197758
O       1.97298     13.34349      9.26915         0.098805      0.014655     -0.514625
O      13.71169      1.72258      9.11622        -0.442043      0.482388     -0.127502
O      13.54108     13.32731      9.29931        -0.050341      0.483938      0.711953
O       1.85987      5.64260      0.59737         0.100137     -0.215347     -0.710200
O       2.02827      5.80193     13.61518         0.215152     -0.006745     -1.524334
O      13.50375      5.49590      0.49241        -0.056811      0.689827      1.439455
O      13.73714      5.68202     13.57808        -0.161046      0.255555     -0.805232
O       1.92942      5.73387      4.93138         0.587278      0.148259      0.721316
O      13.48423      5.69578      4.91565         0.288312      0.029673     -0.522741
O       1.98399      5.75104      9.29376         0.377991      0.447387     -0.608726
O      13.55777      5.85211      9.10936         0.185561     -0.168829      0.112871
O       1.83325      9.49529      0.52911         0.506110      0.196126     -0.033889
O       2.14442      9.40177     13.59511         0.045968      0.201449     -0.845876
O      13.40952      9.62752      0.59299         0.219764      0.144060      0.715451
O      13.56826      9.63740     13.55774        -0.261601     -0.239491      0.115523
O       1.90891      9.46752      4.80959         0.459887      0.468785      1.437473
O      13.59254      9.53306      4.70769        -0.397140      0.045149      1.145069
O       2.01378      9.81125      9.27924         0.318978     -1.103556      1.336412
O      13.41401      9.58613      9.35717         0.217426     -0.203349      0.066903
O       5.75848      1.99593      0.49257        -0.141984     -0.267723      0.523549
O       5.88573      2.01704     13.56294         0.126496     -0.595563      0.662946
O       5.61568     13.51108      0.50285         0.292210     -0.306154     -0.599899
O       5.80403     13.49682     13.58929         0.487641     -0.493057      1.171986
O       5.88455      2.04258      4.86208         0.188253     -0.698242      0.492930
O       5.79878     13.48345      4.85317         0.244994     -0.173533      0.627561
O       5.73356      1.84045      9.20972         0.605990     -0.014328      1.911450
O       5.76052     13.39623      9.26261         0.626182      0.052364      0.352926
O       5.49397      5.83037      0.38324         0.855355     -0.615226      0.791885
O       6.09153      5.74300     13.59803        -0.326686      0.023752      0.265573
O       6.01383      5.75003      4.90447        -0.188220     -0.205865      1.038952
O       5.72926      5.63994      9.18097         0.567107      0.310902      0.725162
O       5.85372      9.68747      0.52052        -0.343719     -0.393221      0.172465
O       5.97735      9.55311     13.67697         0.037430     -0.028873      0.984773
O       5.80885      9.65644      4.88147         0.155371     -0.405870     -0.551511
O       6.04932      9.57946      9.21543        -0.710490      0.002211     -0.438772
O       9.46368      1.90767      0.34821         0.451772     -0.118938      0.784437
O       9.97545      1.84359     13.64254        -0.782564      0.139380      0.379194
O       9.65001     13.44965      0.61005        -0.077248     -0.328496     -0.092757
O       9.68802     13.49944     13.56148         0.098521     -0.619818      1.261948
O       9.57931      2.05368      4.87200        -0.317070     -0.480332      1.263758
O       9.65980     13.37376      4.86234        -0.253393      0.565037      0.297816
O       9.73239      1.90886      9.28888        -0.129914      0.151380      0.631327
O       9.81407     13.38469      9.21185        -0.480005      0.219776     -0.722856
O       9.70244      5.78592      0.36860        -0.374610     -0.414257      0.747875
O       9.94764      5.73161     13.65095        -0.267018     -0.084096      1.019026
O       9.53591      5.71288      4.90008         0.237196      0.306174      0.860118
O       9.85379      5.61590      9.27754        -0.277776      0.326853     -1.403461
O       9.60692      9.73996      0.53369        -0.317832     -0.299694      0.351067
O       9.83564      9.62778     13.66776        -0.122631     -0.339766     -0.323519
O       9.69214      9.45989      4.79579        -0.214927      0.538513      0.529709
O       9.71233      9.56294      9.28030         0.038307      0.186447      0.417276
O       3.93006      1.93970      2.76820        -0.546735     -0.144755     -0.256104
O       4.05175      1.79306     15.74543         0.041133      0.334250      0.427547
O       3.88030     13.48864      2.75820        -0.172804      0.096386     -0.261706
O       3.98691     13.42900     15.86855         0.000557      0.518061     -0.110841
O      15.33788      1.87515      2.73790         0.941889      0.423225     -0.288092
O      15.55110      1.82788     15.62301        -0.382384      0.415115      0.606159
O      15.38979     13.43923      2.95210         0.796337      0.057901     -0.663816
O      15.53794     13.37476     15.88065         0.212012     -0.328114     -0.755379
O       3.89150      1.94642      7.04062         0.388782      0.313993     -0.104794
O       3.91199     13.28848      7.09227         0.738937      0.166878     -0.050123
O       0.12378      1.82559      7.03299        -0.007143     -0.136283      0.486608
O       0.12612     13.32909      7.02444        -0.426928      0.658747     -0.197775
O       3.93366      1.89974     11.33493         0.184692      0.159639      0.866821
O       3.93109     13.41152     11.42776         0.929564     -0.096250     -0.057809
O      15.43326      1.92476     11.31498         1.092952      0.002904      0.633106
O      15.42707     13.37904     11.44981         0.919210     -0.214903      0.315362
O       3.88670      5.80706      2.68145        -0.316535     -0.238204      0.332399
O       4.02365      5.65381     15.67938         0.649623      0.096631      0.107282
O      15.33892      5.64535      2.82106         0.433024      0.059527     -0.662915
O       0.26312      5.76408     15.77099        -0.473499     -0.275978      0.181705
O       3.98640      5.65178      7.06755        -0.097130      0.520658     -0.009752
O       0.10405      5.85484      6.98539         0.710764      0.280909      0.671373
O       4.06028      5.69233     11.48127        -0.459223      0.257985     -0.141736
O       0.23336      5.78947     11.40266        -1.100331     -0.036303     -0.120294
O       3.85043      9.50586      2.79368         0.806487      0.067943     -0.465118
O       4.05998      9.54694     15.82099        -0.583704      0.155234      0.021859
O       0.07846      9.45149      2.65980        -0.256385      0.767835      0.148743
O       0.27051      9.67069     15.73788        -0.823886     -1.130370     -0.069904
O       3.92647      9.60792      7.09240         0.530267      0.219656     -0.129031
O      15.40525      9.62872      7.08222        -0.174016     -0.547322     -0.381964
O       4.03191      9.64009     11.45258        -0.546748     -0.544638      0.039299
O       0.16923      9.57527     11.52785        -0.122452     -0.206461     -0.198002
O       7.75067      1.90979      2.52351        -0.831622      0.198274      0.666473
O       7.92281      1.92555     15.65554        -1.146638     -0.052091      0.332226
O       7.62810     13.33331      2.60911         1.180560      0.385473      0.591957
O       7.87931     13.39138     15.82302        -0.816779     -0.527873     -0.323935
O       7.78040      1.81807      7.25543        -0.792389      0.271642     -0.713190
O       7.75305     13.53948      7.11763         0.050963     -0.478552     -0.263880
O       7.79908      1.88497     11.36501         0.275243      0.011473      0.340885
O       7.88833     13.47724     11.46328        -2.335541     -0.322772     -0.145528
O       7.68687      5.70325      2.45459         0.787327     -0.145648      0.041757
O       7.88362      5.72205     15.78134        -0.037435      0.031652      0.273963
O       7.79260      5.85773      7.24068        -0.320035     -1.001630     -0.748513
O       7.91117      5.62364     11.38232        -1.371758      0.427931      0.021353
O       7.65746      9.72202      2.76589         0.753290     -0.077476     -0.206669
O       7.91603      9.59903     15.77648        -0.300724      0.087246      0.180130
O       7.76769      9.57815      7.07804         0.521954     -0.032607     -0.301199
O       7.70976      9.58432     11.43255         1.954712      0.123395      0.635586
O      11.47980      1.89619      2.60665         1.001195     -0.391826      0.074937
O      11.73157      1.69001     15.77012        -0.081130      0.259934      0.671246
O      11.57325     13.47403      2.67916         0.645669      0.015021      0.312941
O      11.73115     13.51741     15.76806         0.343676     -0.827045     -0.064841
O      11.55360      1.92401      6.93688         0.500790      0.314855      0.588592
O      11.59510     13.42473      7.05754        -0.476734      0.246684      0.187096
O      11.74554      1.79935     11.35641        -0.782296      0.700938     -0.364748
O      11.60909     13.40867     11.35508         0.622439     -0.241954      0.415271
O      11.54235      5.78571      2.72573        -0.390649     -0.064587     -0.404069
O      11.83313      5.87844     15.91780        -0.695265     -0.661569     -0.590332
O      11.63826      5.66838      7.00373        -1.331295      0.157234      0.553895
O      11.66572      5.67989     11.32817         0.540448      0.504720      0.221806
O      11.53390      9.59113      2.70093        -0.047206     -0.029478      0.070865
O      11.77348      9.48262     15.92670        -0.694472      0.234162     -0.678105
O      11.53278      9.61545      6.92560         1.479119     -0.352070      0.244801
O      11.61440      9.58376     11.43953        -0.239545      0.082897      0.311804
O       2.02946      3.80253      2.84417        -0.291468     -0.290202     -0.426944
O       2.03479      3.76970     15.64320         0.589480      0.675042      0.704327
O       2.03597      0.05841      2.73345        -0.352480     -0.550070     -0.144947
O       1.99962     15.34632     15.83669         0.673255     -0.704620      0.184405
O      13.32060      3.75549      2.63634         0.614238      0.140727      0.243801
O      13.60974      3.80997     15.67994         0.000996     -0.044440      0.303013
O      13.49415     15.35660      2.78126        -0.104315     -0.629516     -0.263858
O      13.80634     15.28242     15.78017        -0.619518     -0.483652     -0.213707
O       1.88353      3.93082      7.12851         0.371150     -1.142645      0.137297
O       2.20212     15.27191      6.94568        -0.802374      0.394295      0.362202
O      13.56770      3.83514      6.98843         0.485116     -1.023266      0.775889
O      13.51115     15.31854      7.07887         0.248016      0.089977      0.087079
O       2.09547      3.82069     11.24698        -0.390774     -0.034147      0.666443
O       2.03298     15.24529     11.39999        -0.277457      1.379493      0.319586
O      13.54493      3.90873     11.30843         0.724642     -0.918252     -0.164124
O      13.60213     15.33303     11.42252         0.343985      0.209649     -0.205215
O       2.00454      7.59920      2.68153        -0.384122     -0.162866      0.139769
O       2.19443      7.57043     15.89867        -0.331887      0.976046     -0.580015
O      13.53426      7.63105      2.47648        -0.387342     -0.290297      0.712254
O      13.70938      7.63245     15.76729         0.246433      1.162836      0.070865
O       2.12452      7.78290      7.09022        -0.337429     -1.456822      0.413987
O      13.39855      7.63137      6.89186         0.336242      1.513068      0.779429
O       2.16511      7.68121     11.45458         0.019099     -0.504421     -0.126758
O      13.50436      7.62620     11.28082         0.380790      0.204478      0.829548
O       2.07139     11.49896      2.72993        -0.638557     -0.123480     -0.070545
O       2.06380     11.48952     15.63441         0.890846     -0.018075      0.351374
O      13.51518     11.51482      2.81128         0.081346     -0.137924     -0.133951
O      13.64340     11.40385     15.81754        -0.256974      1.123107     -0.334087
O       2.01059     11.53033      7.14142         0.055068     -0.942712     -0.624872
O      13.48230     11.48290      6.99940        -0.082043     -0.462460     -0.083992
O       2.09642     11.48444     11.43450        -0.197109     -0.069406      0.742222
O      13.55952     11.45859     11.42464        -0.191459      0.281639      0.570958
O       5.75430      3.89783      2.64225         0.084020     -0.858550      0.053870
O       5.95954      3.80706     15.70977        -0.054412     -0.098397      0.477832
O       5.88659      0.01019      2.68377        -0.319305      0.226908      0.166638
O       5.94601     15.30797     15.80298         0.259258      0.333220     -0.022672
O       5.84831      3.75369      6.98730         0.650361      1.059699      0.426794
O       5.70635     15.31829      7.05736         0.535957      0.149316     -0.189572
O       5.91350      3.81180     11.48508         0.097975     -0.043012     -0.097448
O       5.80180     15.35986     11.49941         0.527742     -0.613368     -0.297318
O       5.93175      7.65840      2.69450        -0.527529      0.468424     -0.154084
O       5.90452      7.69431     15.78242         0.452388     -0.931985      0.085545
O       5.82962      7.65685      6.94782        -0.072628     -0.328384      0.578796
O       5.91496      7.64973     11.40607         0.086934     -0.785784     -0.037892
O       5.74490     11.53164      2.73536        -0.390678     -0.496499      0.025896
O       5.78426     11.53830     15.74729         0.995737     -0.640546      0.103845
O       5.88683     11.48190      6.92261         0.360311      0.514943      0.434134
O       5.85012     11.47995     11.44147         0.649724      0.955710     -0.045366
O       9.67002      3.80281      2.69467        -0.138467      0.862478     -0.673224
O       9.93738      3.77590     15.77953        -0.230256      0.613636      0.070537
O       9.62949      0.02232      2.69505        -0.379413     -0.654112      0.336740
O       9.73089     15.22495     15.88099        -0.061452      0.544481     -0.055724
O       9.54308      3.89336      7.15887         0.651392     -0.618366     -0.394207
O       9.72654      0.05251      7.07624        -0.299755     -0.997058     -0.224513
O       9.75811      3.79400     11.49183         0.238606     -0.715961     -0.129889
O       9.70238     15.28402     11.44563         0.068158      1.838159     -0.088112
O       9.56214      7.66798      2.58118         0.117212      0.143711      0.037719
O       9.75087      7.61284     15.76782         0.188633      1.134236      0.348496
O       9.71256      7.69640      7.04590         0.006643     -0.170119      0.243056
O       9.76454      7.62431     11.46026        -0.304543      0.589527     -0.118525
O       9.74232     11.59511      2.77335        -0.502175     -1.949413      0.112773
O       9.87774     11.47401     15.72803        -0.024940     -0.236832      0.257870
O       9.78024     11.49801      7.01226        -1.087193      0.632568      0.046716
O       9.66770     11.55148     11.36505         0.098839     -1.352950      0.299171
