  # total energy = -7879.93044376 
CRSYTAL
PRIMVEC
    15.3600000000000000    0.2300000000000000    0.0000000000000000
     0.0000000000000000   15.3600000000000000    0.0000000000000000
     0.0000000000000000    0.0000000000000000    17.440000000000000
PRESSURE
0.713569 0.576756 -4.5926 -0.202874 -0.267696 -1.49143
PRIMCOORD
320 1
Pb       3.80185      3.89284      4.49851        -0.473004      0.093833     -0.863572
Pb       3.86932      3.69374      0.04228        -0.145628      0.326598     -0.327766
Pb       3.94457     15.38398      4.26077        -0.612643      0.311206     -0.023277
Pb       3.92031     15.39209      0.02959        -0.073073     -0.188432     -0.305783
Pb      15.20153      4.11768      4.35782         0.569643      0.275438     -0.219247
Pb      15.33097      4.03007     17.40729         0.170949     -0.153385     -0.248202
Pb       0.07000     15.16816      4.30816        -0.323346      0.412906      0.288148
Pb       0.07767      0.03260     17.37933        -0.504021     -0.265959      0.189883
Pb       3.83270      3.83814      8.73686        -0.502722     -0.324179     -0.362227
Pb       3.89638     15.37881      8.62478        -0.389155      0.414537     -0.192224
Pb      15.30715      3.84000      8.66017         0.195339      0.301634      0.274914
Pb      15.32928     15.57138      8.68364        -0.257643      0.322068      0.317873
Pb       3.61493      3.80031     12.96819         1.176894      0.326943      0.758018
Pb       3.86893     15.25548     12.98600        -0.048256      0.183100      0.058008
Pb      15.32401      4.07164     13.01986         0.478587     -0.103185     -0.269550
Pb      15.35056     15.53283     13.08101         0.135704     -0.260347     -0.160654
Pb       3.73404      7.72673      4.38802         0.020857      0.120683     -0.364099
Pb       3.85939      7.62259     17.41611        -0.126124      0.444717      0.249271
Pb       0.12000      7.87177      4.39667        -0.230692     -0.325645     -0.194625
Pb      15.34286      7.95128      0.00088        -0.191056     -0.083020      0.013351
Pb       3.87676      7.75426      8.79529        -0.241152      0.225947     -0.434125
Pb       0.14039      7.55936      8.81711        -0.395672      0.904528     -0.343162
Pb       3.72562      7.68497     13.16862         0.658448     -0.390233     -0.576390
Pb      15.33451      7.89958     13.06196        -0.365503     -0.043222     -0.294235
Pb       3.70022     11.70890      4.33870         0.010500     -0.629521      0.136519
Pb       3.71653     11.56718      0.00035         0.629114     -0.086536     -0.586996
Pb      15.26589     11.83140      4.33120        -0.168180     -0.428658      0.087532
Pb      15.16358     11.68099     17.37674         0.253142      0.282125      0.111268
Pb       4.00698     11.66037      8.73762        -0.416857     -0.684875     -0.334970
Pb       0.11128     11.51905      8.86371        -0.409246     -0.663758     -0.257030
Pb       3.80165     11.55480     13.12263         0.292255      0.110436     -0.415725
Pb      15.34377     11.71716     13.15995        -0.119011      0.303811     -0.276790
Pb       7.75510      3.99983      4.33262         0.038115     -0.003947      0.108645
Pb       7.75708      3.78978     17.39610         0.050238      0.434428     -0.403286
Pb       7.82338     15.42132      4.27007        -0.285011     -0.016525     -0.381142
Pb       7.61717     15.42781     17.34637         0.317919      0.001502      0.047832
Pb       7.63792      3.94641      8.70065         0.061189     -0.315659     -0.212425
Pb       7.58810     15.46904      8.59368         0.134235      0.393889      0.120349
Pb       7.57267      3.99798     13.04691         0.057432     -0.340713      0.475785
Pb       7.64966      0.29762     12.93918        -0.116676     -0.655728      0.660535
Pb       7.69381      7.79767      4.30139         0.204233     -0.011452     -0.015927
Pb       7.53942      7.75910     17.33215         0.601984      0.169903     -0.257595
Pb       7.60441      7.59512      8.68632         0.150280      0.780701      0.008541
Pb       7.68093      7.77149     13.04210         0.127584      0.205484      1.238212
Pb       7.63048     11.49646      4.17041         0.062944      0.198729      0.403071
Pb       7.73212     11.61149     17.34079        -0.644874     -0.117714      0.054133
Pb       7.73477     11.57197      8.61321         0.011989     -0.546193      0.095486
Pb       7.66578     11.65999     12.96119         0.213286      0.497053      0.530115
Pb      11.52968      3.97177      4.28683        -0.615216     -0.055758      0.554858
Pb      11.61274      4.10804     17.41832        -0.411083     -0.149984     -0.163935
Pb      11.51056     15.37902      4.24910        -0.084271      0.383898      0.237426
Pb      11.62250      0.25215     17.42307        -0.552244     -0.123983      0.234943
Pb      11.52981      4.13145      8.64208        -0.224517     -0.310321     -0.216909
Pb      11.39459     15.50305      8.70349         0.121125      0.161906     -0.108613
Pb      11.54968      4.18967     13.02465        -0.368312     -0.489296      0.337346
Pb      11.39939      0.18306     13.03602         0.495152     -0.144417     -0.175236
Pb      11.54720      7.78501      4.39646        -0.358530      0.084203     -0.364552
Pb      11.47474      7.89523     17.42584        -0.192794      0.158679     -0.600130
Pb      11.46852      7.85364      8.76808        -0.006770      0.193572     -0.137998
Pb      11.55035      7.92277     12.99446         0.178706      0.164746      0.245158
Pb      11.39792     11.65754      4.45341         0.480378     -0.035832     -0.896823
Pb      11.46257     11.68587      0.00863         0.133628      0.064558     -0.384819
Pb      11.62743     11.68803      8.68437        -0.328595     -0.342164      0.511250
Pb      11.38963     11.72699     13.06470         0.317470      0.177390     -0.273295
Ti       1.86832      1.96121      2.30075         0.440908      0.296908     -0.184782
Ti       1.97297      1.89418     15.39773        -0.341938     -0.262187     -0.682685
Ti       1.91487     13.49023      2.26105        -0.496321      0.491468     -0.900611
Ti       1.85498     13.42963     15.46543        -0.577582     -0.290988     -1.349784
Ti      13.43772      2.06736      2.36691        -1.373750     -0.422947     -0.495948
Ti      13.44459      2.10652     15.27823         0.551724      0.031238      0.394166
Ti      13.41000     13.60498      2.27811        -0.315786     -1.341996     -1.629606
Ti      13.36147     13.70046     15.36453         0.180092     -0.771525     -1.735135
Ti       1.82068      1.89969      6.60182         0.599484      0.538192     -0.121891
Ti       1.84864     13.45028      6.78718         0.813879     -0.001076     -1.793124
Ti      13.25935      2.04291      6.63138         0.153972      0.066317     -1.098593
Ti      13.39367     13.59340      6.81434         0.198105      0.145965     -1.524881
Ti       1.90476      1.81709     11.03330        -0.464203      0.799951     -1.586109
Ti       1.93662     13.38087     11.01880        -0.257174      0.226514     -0.330909
Ti      13.41574      2.12612     11.08408        -0.055356     -1.134580     -0.911237
Ti      13.43867     13.62930     11.11606         0.034813     -0.083431     -0.448158
Ti       1.90500      5.77183      2.33743         0.065026     -0.153838      0.176135
Ti       1.83774      5.77057     15.39769         0.545621     -1.459825     -1.234139
Ti      13.44862      6.00835      2.40993        -0.535042     -0.203212     -0.151798
Ti      13.45079      5.97593     15.33055        -0.464082     -0.138435     -0.173376
Ti       1.83025      5.74235      6.70627         1.396135      0.192255     -1.141033
Ti      13.48484      5.97576      6.67545        -0.830157      0.388949     -0.793625
Ti       1.92377      5.72250     10.93540        -0.539331     -1.112972      1.676220
Ti      13.42716      5.92766     10.94285         0.793627      0.246122     -0.382629
Ti       1.89205      9.70868      2.25773        -0.145423     -0.859865     -1.015503
Ti       1.90751      9.56238     15.45972        -0.494863      1.377429     -0.618994
Ti      13.35987      9.76105      2.34530        -0.292659      1.245674     -0.893193
Ti      13.37071      9.85612     15.35995         0.023527     -0.760254     -0.815937
Ti       1.89540      9.61397      6.73825         0.143712     -1.347224     -0.123061
Ti      13.46382      9.72519      6.80597         0.402542     -0.335449     -0.291548
Ti       1.87561      9.52722     11.13282         0.409345      0.160846     -2.476507
Ti      13.48200      9.81305     10.99936        -0.747303     -0.060183     -0.628439
Ti       5.69942      2.08147      2.37597         0.414081     -1.141059     -1.102305
Ti       5.80599      2.03371     15.40680        -0.305672      0.106918     -0.190337
Ti       5.76834     13.40494      2.28837        -0.092626      1.467088     -1.617281
Ti       5.68678     13.54610     15.35674         0.510496     -1.017996     -1.224727
Ti       5.66891      2.00025      6.60653        -0.194470     -0.156076     -0.641544
Ti       5.75442     13.45784      6.52155        -0.921606      0.095098      0.094714
Ti       5.70806      1.97110     11.01669         0.129810      0.736677     -0.933953
Ti       5.78560     13.48771     10.87673        -0.428766      0.264775      1.774342
Ti       5.76497      5.88547      2.40136        -0.842741      0.253221     -0.617282
Ti       5.65473      5.84786     15.44107         1.688087     -0.205223     -1.904750
Ti       5.65109      5.83636      6.64285         0.541082      0.215427     -0.687842
Ti       5.79411      5.88447     11.15013        -1.769752     -0.462487     -0.657921
Ti       5.69669      9.67666      2.21560         0.277620     -0.259399     -1.903411
Ti       5.77224      9.72674     15.33391         0.149419      0.523016      0.977216
Ti       5.73139      9.63366      6.63108        -0.026580     -0.187020     -0.221559
Ti       5.78508      9.67763     11.12232        -0.174449     -0.613227     -0.700440
Ti       9.58975      2.08269      2.34464         0.511279     -0.686629     -1.735016
Ti       9.70641      2.06284     15.39496        -1.074987      0.289371     -0.473250
Ti       9.59796     13.48512      2.22821        -0.103462      0.206545      0.258989
Ti       9.55345     13.58262     15.36536         0.082698      0.089612     -1.650665
Ti       9.48499      2.03171      6.68791         0.169595      0.500720     -0.915070
Ti       9.49734     13.49704      6.64340         0.419268      0.705039     -1.784484
Ti       9.58828      2.10276     10.98390        -0.402436      0.386912     -0.991325
Ti       9.57564     13.69278     11.02349         0.049562     -1.643893     -0.244043
Ti       9.61790      5.89767      2.25565         0.207896      0.901095      0.065447
Ti       9.59730      5.95162     15.34047        -0.951848     -0.110412     -0.964840
Ti       9.59182      5.92348      6.65995        -0.613323     -0.444457     -1.202524
Ti       9.61649      5.89627     11.13098         0.024798      0.159531     -1.113969
Ti       9.60336      9.76122      2.25788         0.162138     -0.853419     -0.953355
Ti       9.56810      9.79173     15.28207         0.029622     -0.780983      0.052630
Ti       9.58487      9.69359      6.62555        -0.420065     -0.937892     -0.133695
Ti       9.58410      9.70811     11.07884         0.651602      0.855097     -1.203256
O       2.03214      2.02067      0.47359        -0.354939     -0.315106      0.653278
O       1.82382      1.68345     13.60749         0.488906      0.630935      0.847330
O       2.00095     13.46478      0.46124        -0.214655      0.208324      0.868069
O       1.74205     13.38491     13.59696         0.693353      0.059792      1.004065
O      13.19623      2.07299      0.58717         0.450617      0.179380      0.097684
O      13.55401      2.01588     13.52299        -0.380790      0.323161      0.269426
O      13.28058     13.51463      0.45123         0.173481      0.239112      0.826562
O      13.43876     13.61183     13.46582         0.025262      0.112396      1.679902
O       1.94794      1.86141      4.81610        -0.443170      0.560481      0.813681
O       1.79178     13.36121      4.87286         0.011773      0.395290      1.905425
O      13.17288      1.85861      4.81302         0.634211      0.596951      1.292848
O      13.57168     13.66607      4.98599        -0.492275     -0.375948      1.077193
O       1.91344      2.06085      9.19086        -0.188447     -0.721161      1.263597
O       1.97878     13.46533      9.20668        -0.171779     -0.408845     -0.309812
O      13.31924      2.18195      9.27434         0.272912     -0.378115      0.247402
O      13.41081     13.59650      9.28346        -0.017078      0.178042     -0.248791
O       1.89641      5.79422      0.58004         0.006657     -0.149774     -1.116807
O       1.71587      5.63797     13.57499         0.300057      0.791629      1.373482
O      13.35989      5.92756      0.64079         0.266966     -0.155518     -0.342996
O      13.57006      5.90955     13.54433        -0.432735      0.077819      0.394901
O       1.88727      5.74255      4.86810         0.055186      0.020358      0.759625
O      13.39620      5.96836      4.81288         0.273474      0.239244      1.149112
O       1.96516      5.69781      9.20004        -0.006141     -0.002688     -0.589917
O      13.39482      5.79257      9.15947        -0.354057      0.146115      0.184745
O       1.92190      9.64440      0.39636        -0.232658     -0.139706      1.619013
O       1.58525      9.57020     13.61422         1.113403     -0.191162      0.731689
O      13.31445      9.85482      0.50975        -0.024739     -0.314937      0.827207
O      13.48654      9.87953     13.53635         0.002886     -0.478866      0.858577
O       1.93101      9.47041      4.85371        -0.326497      0.443779      1.074865
O      13.50442      9.70854      5.01193        -0.095522     -0.139184      0.043318
O       1.79061      9.46185      9.21577         0.357574      0.451287      2.062876
O      13.46478      9.81435      9.19973        -0.169689      0.232509      0.699240
O       5.80111      2.09288      0.45686        -0.550988     -0.229541      1.460883
O       5.85552      1.95093     13.65829        -0.051221      0.014345     -0.647616
O       5.62794     13.48224      0.42732         0.069157      0.027062      1.400785
O       5.80248     13.61493     13.51242        -0.748490     -0.209431      1.437973
O       5.70347      2.02404      4.75711        -0.121327      0.062176      1.141258
O       5.69941     13.28706      4.75003         0.040416      0.464606      0.181104
O       5.79560      1.95990      9.21286        -0.429723     -0.071795      0.386835
O       5.76104     13.56254      9.11968        -0.225307     -0.373543     -0.338651
O       5.66778      5.99698      0.59456         0.299510     -0.199704      0.245775
O       5.72625      5.78797     13.64856        -0.035932      0.221063     -0.038255
O       5.82403      5.83463      4.80948        -0.435340     -0.168061      1.044194
O       5.64355      6.10284      9.35020         0.384368     -0.857935      0.658613
O       5.62505      9.65862      0.34450         0.103297     -0.189769      1.973964
O       5.78958      9.75203     13.59932        -0.213873     -0.115767     -1.448995
O       5.70274      9.61606      4.85160        -0.051130      0.267791      0.343907
O       5.74655      9.58341      9.31705         0.130306      0.158926      0.676608
O       9.58398      2.02365      0.46206         0.059097      0.045734      1.286601
O       9.36910      2.01920     13.62821         0.925152     -0.135896      0.257016
O       9.48674     13.43823      0.46224         0.452567      0.236202     -0.200556
O       9.44083     13.56000     13.45804         0.571466      0.348002      1.631082
O       9.48404      2.01000      4.84507        -0.255759     -0.015243      0.678246
O       9.51050     13.41312      4.79980        -0.050396      0.480501      1.482440
O       9.40196      2.04099      9.17443         0.633167      0.222462      0.639687
O       9.56517     13.48379      9.24095        -0.071871      0.195417     -0.106749
O       9.55680      5.99658      0.49257         0.276413     -0.280549     -0.071590
O       9.56688      5.86463     13.48703         0.255726      0.023868      0.469632
O       9.44961      5.97007      4.82099         0.300236     -0.246722      1.032121
O       9.78459      5.90872      9.30344        -0.698806     -0.166071      1.041321
O       9.79303      9.82086      0.44355        -0.410546     -0.344394      0.983320
O       9.63604      9.90938     13.49348        -0.035662     -0.577997      0.369478
O       9.53041      9.54723      4.81782         0.192812      0.671410      0.949884
O       9.71065      9.70922      9.25607        -0.712488      0.366457      0.681552
O       3.72457      1.89311      2.69196         1.309710      0.317400     -0.082494
O       3.89308      1.95261     15.72121        -0.866141      0.012557      0.387214
O       3.76351     13.39095      2.76544         0.416053      0.319393     -0.401412
O       3.70521     13.44841     15.74663         1.001675     -0.000522     -0.276194
O      15.27690      2.04422      2.47686         0.256771      0.348754      0.553466
O      15.35772      2.05673     15.82992        -0.664626      0.341074     -0.013102
O      15.34286     13.75597      2.51140        -0.357074     -0.309147      0.659345
O      15.22708     13.80963     15.78477         0.206629     -0.719640      0.145476
O       3.72444      2.04327      7.07638         1.324412     -0.215109     -0.281986
O       3.81590     13.43853      7.01560        -0.329382     -0.270557      0.059579
O      15.24755      2.11608      6.99884         0.133852     -0.233110     -0.071850
O      15.30096     13.81976      7.11145         1.013824     -0.644978      0.231668
O       3.77984      2.03349     11.37288         0.685991     -0.808608      0.150370
O       3.81494     13.42557     11.40467         0.352202      0.099505      0.182013
O       0.02348      1.96825     11.35969        -0.750005     -0.388292     -0.044462
O       0.07553     13.40615     11.33127        -0.653595     -0.628887      0.049353
O       3.80311      5.84945      2.72337         0.792762     -0.062337      0.315987
O       3.79484      5.96227     15.66881        -0.428273     -0.306994      0.445298
O      15.31374      5.93780      2.73282        -0.260746     -0.196212      0.145678
O       0.02089      5.55744     15.82066        -0.900542      1.067653      0.183601
O       3.78898      5.85182      7.02686         1.103366     -0.584239     -0.156802
O       0.00582      5.73940      6.93838        -1.267807      0.190796      0.367082
O       3.74078      5.77259     11.55936         0.675931      0.417193     -0.248031
O      15.26683      5.70371     11.23860         0.918689      0.562029      0.248569
O       3.74398      9.70657      2.60979        -0.022279      0.068269      0.054848
O       3.81643      9.84257     15.69152        -1.444713     -1.128218     -0.451451
O      15.22117      9.82585      2.66011         1.906676     -0.343032      0.065612
O      15.26731      9.78265     15.97185         0.184568     -0.215877     -0.606647
O       3.81355      9.52374      7.16688        -0.077246      0.938448     -0.475072
O      15.35063      9.58173      7.24281         0.624862      0.797648     -0.843991
O       3.88277      9.42742     11.45422        -1.052478      0.035109      0.407969
O      15.34471      9.80021     11.38107         0.336141      0.134027      0.256402
O       7.64877      2.05580      2.61996        -0.144542     -0.098541      0.369955
O       7.70219      1.97176     15.79145        -0.053461      0.130219      0.379283
O       7.64673     13.51922      2.54805        -0.497638     -0.159040      0.422316
O       7.63049     13.49218     15.74550        -0.157419      0.654975      0.154343
O       7.57013      2.01196      7.11483        -0.192339     -0.054223     -0.469256
O       7.57480     13.57016      6.89103         0.762518     -0.105140      0.459039
O       7.66590      2.04653     11.38465        -0.131273      0.123190      0.057694
O       7.60920     13.53804     11.26703         0.091428     -0.051869     -0.114694
O       7.70467      5.82843      2.76055        -0.608760     -0.196528     -0.555377
O       7.68306      5.81592     15.72862         0.013309      0.261936      0.521829
O       7.66633      5.77658      7.17853        -1.085400      0.357460     -0.264232
O       7.60826      5.73621     11.39490         1.424610      0.111955     -0.094250
O       7.66299      9.72443      2.43315        -0.431654     -0.066941      0.524470
O       7.71846      9.78307     15.79814        -0.655479     -0.474879     -0.155131
O       7.62881      9.52687      7.02259         0.220877      1.207998      0.162416
O       7.71757      9.77372     11.49926        -1.002951      0.061890     -0.387938
O      11.43541      2.00228      2.70653         0.046524     -0.446595      0.318292
O      11.59410      1.97338     15.61406        -0.723683      0.685973      0.127545
O      11.49269     13.34937      2.62569        -0.347728      0.407738      0.334759
O      11.46499     13.45548     15.60091        -0.341561      0.100567      0.192463
O      11.35373      2.03789      7.05493         1.199824      0.150480      0.139216
O      11.43232     13.51296      6.99034         0.558246      0.039628      0.239525
O      11.45156      1.99665     11.44687         0.368501     -0.111421      0.052466
O      11.49787     13.69684     11.35330        -0.539881     -0.080823      0.242377
O      11.50347      5.84824      2.72420        -0.053107      0.692968      0.203986
O      11.46296      5.90215     15.70142         1.290082      0.355962      0.169724
O      11.44608      5.96183      6.96987         0.638493     -0.220083      0.144564
O      11.56960      6.11615     11.41940        -0.961867     -0.818285      0.373620
O      11.45603      9.84441      2.75955         0.519249     -0.066213      0.306260
O      11.48963      9.64257     15.70324         0.353780      0.626052     -0.048645
O      11.50487      9.71936      7.09706        -0.859182      0.351164     -0.392148
O      11.53131      9.60990     11.38379        -0.215129      0.317044      0.133219
O       1.88601      3.86299      2.70109        -0.181186     -0.766598      0.255199
O       1.88791      3.78427     15.71856         0.389106      0.410601      0.249225
O       1.82482      0.06472      2.82477         0.769209     -0.941797     -0.904844
O       1.82938     15.30331     15.91933         0.803871      1.029208     -0.355996
O      13.27269      3.93453      2.87605         1.313955      0.211576     -0.739235
O      13.34660      4.03791     15.78675         0.503476     -0.620499     -0.137875
O      13.26882     15.38452      2.65499         0.076447      1.497847      0.165308
O      13.26032     15.51869     15.74020         0.595966      0.549857     -0.006719
O       1.87044      3.83652      7.13928        -0.069838      0.073399     -0.630941
O       2.02638      0.06046      7.03722        -0.825773     -1.157048      0.148145
O      13.41534      4.06762      6.90396        -0.340672     -0.687324      0.125207
O      13.37890      0.20688      7.14645        -0.515331     -0.367045      0.201226
O       1.94731      3.74754     11.52009        -0.827403      0.948150     -0.653465
O       1.89862     15.29554     11.32197         0.271573      0.241907      0.227928
O      13.32232      3.93562     11.40433        -0.397434      1.431035      0.310804
O      13.51281     15.49595     11.49372        -0.289220      0.775088     -0.363727
O       1.89673      7.65832      2.58667        -0.390098      1.657020      0.554132
O       1.90194      7.70063     15.69098        -0.545939     -0.374064      0.299283
O      13.34278      7.91225      2.61622        -0.077236     -0.780210      0.434678
O      13.44422      7.82145     15.62826         0.353050     -0.064807      0.519061
O       1.94905      7.65279      7.07830        -0.387824     -0.128090     -0.009717
O      13.34420      7.86189      7.26424         0.375561     -1.238948     -0.662338
O       1.78698      7.56780     11.33065        -0.127565      0.447689      0.628168
O      13.50525      7.86938     11.26515         0.356329     -0.693852      0.460714
O       1.74852     11.62957      2.67023         0.432303     -1.441474     -0.127192
O       1.67431     11.53480     15.81749         0.371043     -0.195961     -0.193429
O      13.44322     11.68072      2.90958        -0.075979      0.411022     -0.416952
O      13.34614     11.66833     15.75260         0.602021      0.667083     -0.043875
O       1.83667     11.48043      7.09280        -0.117482      0.705178     -0.050620
O      13.54828     11.62629      7.17320        -0.197295      1.512433     -0.209482
O       1.99561     11.39415     11.41939        -0.148550      0.529564     -0.061073
O      13.38395     11.69780     11.37762         0.061867     -0.008630      0.031376
O       5.58809      3.89838      2.66935         0.439502      0.637835      0.062025
O       5.71729      3.99004     15.77743         0.069591     -0.995338      0.391169
O       5.64492     15.37757      2.63965         0.323078      0.164308     -0.001670
O       5.64329     15.42207     15.74856         0.498637      0.045005      0.396983
O       5.65683      3.87448      7.07411         0.291106      0.741226     -0.251921
O       5.63208     15.42343      6.90941         0.181121      0.013145      0.024904
O       5.73629      3.85256     11.41974        -0.314091      0.793097      0.007516
O       5.59504      0.08691     11.31999         0.538898     -0.763059      0.041775
O       5.76282      7.84900      2.67020        -0.213240     -1.043065      0.119394
O       5.89147      7.84975     15.62210        -0.889228     -1.243178      0.689828
O       5.73463      7.74516      7.01964        -0.006781     -1.003328      0.077731
O       5.91702      7.73866     11.63532        -0.973562     -0.107713     -0.545865
O       5.75417     11.55119      2.62819        -0.364408     -0.068264      0.097658
O       5.65694     11.59881     15.64868         0.440743      1.296407      0.302356
O       5.74034     11.58257      7.07336         0.094994     -0.252960     -0.007907
O       5.59462     11.56718     11.35653         0.468421      0.400701     -0.192928
O       9.77593      3.95620      2.60406        -1.340962     -0.002200      0.171101
O       9.70397      3.99152     15.71478        -0.375511     -0.892000      0.346006
O       9.61203     15.34951      2.72421        -0.315459      0.796861     -0.223430
O       9.72198     15.45855     15.74038        -0.731764     -0.282160      0.119418
O       9.48719      3.97688      7.05381         0.195797     -0.366338     -0.082191
O       9.53360     15.46526      6.99539        -0.233891     -0.539587      0.226083
O       9.73729      3.99302     11.47460        -0.365553      0.232007     -0.375614
O       9.55681      0.21074     11.21165        -0.153257     -0.878418      0.616118
O       9.63214      7.84051      2.60210        -0.047614     -0.381553      0.168649
O       9.59492      7.85586     15.51737        -0.265501     -0.353763      0.694849
O       9.45427      7.77621      7.03440         0.735588      0.311573      0.152060
O       9.36628      7.81519     11.41948         0.925069     -0.627437      0.018249
O       9.51111     11.61721      2.74369         0.108950     -0.038966     -0.036085
O       9.44710     11.61537     15.77169         1.168576      1.094284     -0.303489
O       9.46178     11.61686      6.92778        -0.005286     -0.355854      0.375546
O       9.61835     11.64620     11.54515        -0.018361      0.477923     -1.105116
