  # total energy = -7883.76547575 
CRSYTAL
PRIMVEC
    15.3600000000000000    0.2300000000000000    0.0000000000000000
     0.0000000000000000   15.3600000000000000    0.0000000000000000
     0.0000000000000000    0.0000000000000000    17.440000000000000
PRESSURE
0.444417 0.342719 -2.80886 0.083064 0.267581 -1.59955
PRIMCOORD
320 1
Pb       3.77323      3.84054      4.27319         0.321385      0.164921     -0.143016
Pb       3.78253      3.93844     17.36053         0.346469      0.115830     -0.166759
Pb       3.69550      0.07110      4.40577        -0.102353      0.231374     -0.143165
Pb       3.71867     15.38509     17.28986        -0.054018     -0.003559      0.035079
Pb       0.02791      3.77317      4.34157        -0.110619     -0.066974     -0.384957
Pb      15.33453      4.00740     17.31694         0.112725     -0.177871     -0.165629
Pb      15.29724      0.36071      4.33846         0.152312     -0.308882     -0.315251
Pb      15.32190     15.51973     17.31575        -0.013515      0.056206      0.061614
Pb       3.81231      4.01493      8.68193         0.212458     -0.303852      0.301370
Pb       3.69766      0.12995      8.80232         0.448403     -0.291116     -0.408110
Pb       0.02936      4.04454      8.86900        -0.066904     -0.380806     -0.525003
Pb      15.31051      0.25594      8.75744        -0.162136      0.009229     -0.442820
Pb       3.97670      3.98708     13.08358        -0.123681      0.330630     -0.348248
Pb       3.82778      0.15841     13.06377        -0.170854     -0.749511     -0.238602
Pb      15.31847      4.08224     13.04424         0.577168     -0.133097     -0.299854
Pb      15.28988      0.24263     13.06903         0.073370     -0.475969     -0.197985
Pb       3.88353      7.71815      4.30386        -0.174272     -0.157122     -0.261119
Pb       3.81861      7.74902      0.02133         0.239788     -0.297196     -0.411662
Pb      15.25417      7.72859      4.26406         0.398791      0.589305      0.091566
Pb       0.03156      7.56457     17.36576        -0.046924      0.594194     -0.417776
Pb       3.76108      7.80143      8.55811         0.040045      0.185026     -0.103099
Pb      15.19569      8.06431      8.58459         0.914207     -0.378501      0.070463
Pb       3.92089      7.81774     12.97418        -0.194962     -0.419261      0.534906
Pb      15.33293      7.94883     13.05172         0.312022     -0.058576      0.049166
Pb       3.87519     11.52622      4.31767        -0.166154      0.260666      0.174608
Pb       3.89131     11.52085     17.40705        -0.225792      0.141787     -0.584745
Pb       0.01654     11.46175      4.28174        -0.393735      0.360285      0.395996
Pb       0.12740     11.46367     17.40936        -0.180829     -0.029894     -0.401568
Pb       3.67415     11.53900      8.65186         0.177708     -0.102768     -0.226092
Pb      15.20626     11.77127      8.54995         0.608942     -0.290624      0.013622
Pb       3.91526     11.51048     13.01545        -0.321229      0.207474     -0.192658
Pb      15.30127     11.68737     13.00009         0.639436      0.307668      0.513138
Pb       7.56728      3.77645      4.34514         0.209864      0.434748     -0.231821
Pb       7.56183      3.97297      0.03230         0.032023      0.223622     -0.388341
Pb       7.49261      0.16943      4.39332         0.394178     -0.351423     -0.430041
Pb       7.64369     15.46664     17.42356         0.042615     -0.209377     -0.360874
Pb       7.72899      3.95150      8.66825        -0.060147      0.237630      0.020973
Pb       7.74827      0.18259      8.76598        -0.054153      0.179822      0.005420
Pb       7.73270      3.87495     13.02146        -0.180307      0.037887      0.342794
Pb       7.67519     15.29987     13.14531         0.256404      0.480246     -0.531943
Pb       7.59216      7.72166      4.36536         0.481654     -0.350710     -0.381657
Pb       7.73622      7.73966      0.17410        -0.101481     -0.057106     -0.896963
Pb       7.67353      7.94448      8.55927         0.148903     -1.067625      0.618574
Pb       7.61455      7.75555     13.03669         0.058414      0.360252      0.221537
Pb       7.64734     11.76291      4.44703         0.062293      0.265812     -0.654651
Pb       7.65507     11.58197      0.08637         0.037023      0.155945     -0.662647
Pb       7.61006     11.70413      8.67074        -0.000711     -0.381833      0.262066
Pb       7.70066     11.50466     13.09215        -0.129828     -0.120753     -0.309496
Pb      11.56139      3.93803      4.26905        -0.506478     -0.069995      0.457121
Pb      11.38255      3.85864     17.37737         0.293959      0.018100      0.199297
Pb      11.50137      0.24188      4.35671         0.102090     -0.287225     -0.292043
Pb      11.42349     15.38448     17.40015         0.270345      0.044994      0.032522
Pb      11.52001      3.96211      8.75483        -0.229867      0.355292     -0.607247
Pb      11.60958      0.20826      8.73277        -0.499526     -0.394759      0.214008
Pb      11.43597      3.80650     13.06800        -0.129005      0.572587     -0.047215
Pb      11.51194     15.40542     13.08300         0.206616     -0.729387     -0.501990
Pb      11.56016      7.79102      4.26237        -0.231618     -0.245032     -0.102857
Pb      11.52915      7.71833      0.03551        -0.046675      0.455720     -0.556002
Pb      11.51049      7.89345      8.54095        -0.859689     -0.441566      0.217412
Pb      11.35980      7.73854     13.10727         0.621065      0.259705      0.094734
Pb      11.56855     11.75954      4.22994        -0.083396      0.113997     -0.091578
Pb      11.55263     11.49905      0.04336        -0.079941      0.091736     -0.319797
Pb      11.46254     11.65528      8.66009         0.103244      0.208929      0.027657
Pb      11.49811     11.53722     13.06819         0.281827      0.615994      0.198007
Ti       1.90586      1.99894      2.15535        -0.298365     -0.458518     -0.064983
Ti       1.89581      1.97783     15.26481        -0.141999     -1.087273     -0.149550
Ti       1.93011     13.50859      2.42016        -0.302521      0.568550     -0.464980
Ti       1.89479     13.43045     15.31485        -0.545136     -0.707525     -0.393665
Ti      13.43701      2.10317      2.23959        -0.750207     -0.705795      0.151815
Ti      13.41782      2.09248     15.28902         0.435724     -0.549855      0.737327
Ti      13.48623     13.68929      2.34186        -0.293458      0.236860     -0.886111
Ti      13.42697     13.55168     15.46503        -0.331229     -0.364009     -2.142487
Ti       1.85962      2.01430      6.79936        -0.511274     -0.233430     -1.292613
Ti       1.91510     13.52633      6.68885        -0.311860     -0.489547     -0.586362
Ti      13.41029      2.12108      6.68903        -0.132137      0.174989     -0.970087
Ti      13.35989     13.66578      6.68669         0.609361     -0.035238     -0.198123
Ti       1.90201      1.85988     11.08477        -0.432425      1.149152      0.127136
Ti       1.94166     13.39272     11.00353         0.408008     -0.466903      1.241308
Ti      13.42685      2.12682     11.05934         0.296418     -1.736587     -0.175390
Ti      13.45776     13.55579     11.01751        -0.772734      0.990930     -0.097458
Ti       1.89831      5.78709      2.25622         0.730577     -0.159127      0.096801
Ti       1.88237      5.75977     15.25531         0.889110      0.532691     -0.827239
Ti      13.44621      5.82030      2.22463        -0.146099      0.502803      1.490067
Ti      13.38785      5.88802     15.31524        -0.097319      0.788653     -0.164926
Ti       1.89187      5.78982      6.59984        -0.521554      0.466388      0.135006
Ti      13.42813      5.92305      6.60291        -0.713539     -0.090585     -0.588774
Ti       1.97704      5.77754     11.04292         0.042678     -0.070650      2.423569
Ti      13.43989      5.95729     11.06671        -0.013032     -0.007473     -0.264525
Ti       1.94893      9.66020      2.30151        -0.357448     -0.684684     -0.310177
Ti       2.04989      9.55285     15.36874        -1.294597      1.359012     -1.284956
Ti      13.43958      9.74552      2.35248         0.110923      0.210530     -0.663620
Ti      13.49780      9.72945     15.45848        -0.195188      0.476129      0.807736
Ti       1.90418      9.62159      6.44164        -0.256432      0.199977      1.710052
Ti      13.36233      9.73433      6.54694         0.924610      1.233157     -1.415525
Ti       1.91352      9.56676     11.05129         0.788019      1.046317     -0.583789
Ti      13.49878      9.73963     10.95627        -0.863873      0.723534      0.289203
Ti       5.65285      1.93413      2.20836         0.579772      0.879039      0.121535
Ti       5.75900      2.00543     15.40013         0.079715      0.645897      0.961198
Ti       5.71723     13.51942      2.33604         0.215990      0.163298     -0.207429
Ti       5.69255     13.51895     15.30033         0.751296     -0.929852      0.774265
Ti       5.66266      2.01554      6.76304         0.391899     -0.237820     -0.433868
Ti       5.77383     13.58305      6.72553        -1.337177     -0.114712      0.122325
Ti       5.78316      1.98079     11.09446         1.088367      0.681124     -1.196387
Ti       5.76994     13.56283     10.94657        -0.336840     -0.770492      1.152679
Ti       5.81005      5.82463      2.39320        -1.159249     -0.630907     -1.588006
Ti       5.69983      5.88660     15.43395         0.828514      0.223196     -0.960207
Ti       5.72780      5.80734      6.68520         0.953476      0.785759     -0.873267
Ti       5.88467      5.91534     10.99079        -1.052271     -0.848601     -0.469954
Ti       5.80084      9.72350      2.28613        -0.266551     -0.324143     -0.774437
Ti       5.80875      9.63156     15.50075         0.412027      0.010966     -0.926365
Ti       5.79552      9.71753      6.61753        -1.336694     -0.098297      0.091881
Ti       5.76252      9.68313     10.92039         0.950066      0.097193     -0.230298
Ti       9.54426      1.96915      2.34446         0.761410      1.234475     -1.648702
Ti       9.57301      1.99708     15.45502        -0.633498      0.134674     -0.898369
Ti       9.53278     13.56346      2.38055         0.621611      0.253487     -0.166391
Ti       9.53490     13.44801     15.40465         0.432976     -0.210515     -0.034874
Ti       9.56868      2.01009      6.67684         0.173431      0.323163      0.290327
Ti       9.57098     13.56744      6.65627         0.125867      1.178928     -1.772052
Ti       9.61016      1.97260     11.11807        -0.857106     -0.613853     -1.014101
Ti       9.57123     13.48686     11.01830         1.083063      0.303411      0.516186
Ti       9.65539      5.84026      2.29116        -0.486227     -0.333298      0.310088
Ti       9.57090      5.85611     15.39041        -0.641691      0.600489     -0.466579
Ti       9.59179      5.89787      6.61373        -0.163383     -0.018605     -0.309863
Ti       9.66723      5.89775     11.04980        -0.307313      0.090884     -1.381460
Ti       9.57337      9.69940      2.36609         0.364772     -0.039560      0.344364
Ti       9.57186      9.65544     15.46464         0.507764      0.140829     -0.307582
Ti       9.55218      9.79808      6.45017         0.276279     -1.072341      0.692764
Ti       9.67067      9.69652     11.02423        -0.507755      0.411738     -0.532529
O       1.99400      2.00826      0.36347        -0.212971     -0.219699      0.811594
O       1.81176      1.86256     13.47334         0.342237     -0.096182      0.450144
O       1.94485     13.51270      0.64800         0.129315      0.098584      0.477227
O       1.85278     13.38659     13.57450         0.174075      0.283868     -0.199397
O      13.32890      2.06783      0.49934         0.222479      0.182741     -0.597160
O      13.58438      2.20414     13.51178        -0.721450     -0.332485      0.826834
O      13.53236     13.75554      0.52732        -0.410737     -0.387332      0.716190
O      13.37836     13.46832     13.60136         0.230951      0.454457      1.630890
O       1.84876      2.01554      4.97033         0.011456      0.124686      0.964286
O       1.92035     13.61776      4.89083         0.053402      0.037120      0.458493
O      13.31044      2.08028      4.82250         0.642564     -0.137778      1.911886
O      13.37088     13.74656      4.92211         0.099076     -0.068772      0.323051
O       1.91231      1.97560      9.29336         0.048572     -0.152624      0.077104
O       2.16626     13.34711      9.24447        -0.758561      0.371642     -0.023760
O      13.41538      2.09073      9.26141         0.028836      0.044606      0.031849
O      13.28750     13.55820      9.20972         0.689120      0.167249      0.510308
O       1.89752      5.68491      0.47613        -0.092869      0.301847      0.180523
O       1.88549      5.85500     13.45937         0.129255     -0.350859      1.269553
O      13.41994      5.88573      0.49865         0.235301     -0.172422     -0.711841
O      13.53248      6.11000     13.53457        -0.358732     -0.807946      0.845492
O       1.80695      5.83196      4.85020         0.333721     -0.603781     -0.119332
O      13.43627      6.06221      4.81078         0.155203     -0.320776      0.693434
O       2.04579      5.72314      9.31593        -0.240130      0.073472     -0.962385
O      13.36997      5.79626      9.26964         0.026369      0.363457      0.382349
O       2.03971      9.65729      0.47046        -0.255992      0.003823      1.539660
O       1.82858      9.61810     13.54950         0.581831     -0.308628      1.124710
O      13.40708      9.83864      0.52999         0.221659     -0.345324      1.244026
O      13.57458      9.65631     13.71568        -0.027157      0.347832     -0.482072
O       1.99701      9.65083      4.70993        -0.381024     -0.078480     -0.341736
O      13.51105      9.76006      4.70880        -0.608981     -0.227465      1.855196
O       1.93931      9.63235      9.26529        -0.003279     -0.242661      0.177209
O      13.44470      9.85356      9.16110        -0.045474     -0.354839      0.570034
O       5.64984      2.09992      0.43895         0.113049     -0.308542      0.180495
O       5.95815      1.98738     13.68428        -0.277647      0.047277     -1.010707
O       5.70046     13.42801      0.58821        -0.007719      0.108179     -0.467973
O       5.90695     13.42067     13.55462        -0.654815      0.346813      0.500611
O       5.66890      2.06353      4.94271         0.219995     -0.292704      0.906352
O       5.79706     13.60064      4.92804        -0.017894     -0.003764      0.386147
O       5.77614      2.05521      9.29409         0.041593     -0.180425      0.507460
O       5.69845     13.51138      9.18690         0.165867      0.088227      0.490213
O       5.56510      5.64974      0.56874         0.746804      0.724268      1.094446
O       5.82210      5.90603     13.62092         0.005874     -0.130265      0.774284
O       5.77481      5.86349      4.84663         0.106762     -0.104644      0.525950
O       5.76802      5.84062      9.19593        -0.258356      0.111293      0.409694
O       5.73723      9.70373      0.45013        -0.343202      0.124382      1.244025
O       5.95270      9.75147     13.69503        -0.165564     -0.639754      0.281487
O       5.76092      9.75312      4.83048         0.217050     -0.065414      0.300710
O       5.83069      9.66964      9.11561        -0.265701     -0.281451      0.660831
O       9.71634      2.05613      0.44203        -0.479752     -0.278220      1.359657
O       9.50816      2.00063     13.63381         0.331580      0.241126      0.620335
O       9.58335     13.63065      0.58393        -0.253014      0.061825      0.270259
O       9.63132     13.41126     13.62518        -0.248990      0.361192      0.687437
O       9.67875      2.00783      4.90090        -0.674906      0.043092      0.536569
O       9.48921     13.61715      4.77244        -0.015225     -0.102058      1.996354
O       9.55147      1.87846      9.29352         0.115297      0.643585      0.700786
O       9.64130     13.54306      9.25313        -0.327320     -0.343809     -0.097941
O       9.68835      5.81010      0.49170         0.084972      0.222909      0.718108
O       9.60751      5.89088     13.55617        -0.186309      0.169298      0.552142
O       9.54101      5.87909      4.84251        -0.090667      0.031297      0.335487
O       9.73951      5.89952      9.23151         0.006607     -0.237423      1.265698
O       9.71995      9.73457      0.61554        -0.090186     -0.195111     -0.484473
O       9.52597      9.72161     13.65893         0.211298     -0.334476      0.628344
O       9.42388      9.71941      4.68393         0.207491      0.289596      0.871454
O       9.67014      9.86657      9.23775        -0.046238     -0.329111      0.481282
O       3.82575      1.96041      2.67345        -0.520673      0.141619      0.033665
O       3.79650      1.98990     15.53948         0.716833     -0.685063      0.287601
O       3.89417     13.64856      2.83369        -1.459355     -0.437644     -0.087204
O       3.74457     13.58911     15.73827         2.016894     -0.411433     -0.061326
O      15.31634      2.15632      2.60988         0.728124      0.825964      0.045309
O      15.35859      2.18422     15.74456        -0.139715     -0.254547     -0.053514
O      15.34041     13.70565      2.78385         0.371256      0.023382      0.062234
O      15.35694     13.60964     15.79105        -0.030092     -0.249857      0.256556
O       3.73244      1.97335      7.10805         1.571106      0.330182      0.246522
O       3.77783     13.43791      7.08689         0.712451      0.317765     -0.278224
O      15.32301      2.15652      7.16132        -0.369464      0.140865     -0.093539
O      15.34261     13.67656      7.14617        -0.078426      0.278113     -0.096676
O       3.95515      1.88548     11.46349        -1.078487      0.456008      0.200605
O       3.86577     13.46263     11.55082         0.635436      0.355724     -0.458017
O      15.33921      2.09895     11.45495         0.787483     -0.161679     -0.428503
O       0.08101     13.47511     11.36045        -0.644447     -0.508614     -0.347086
O       3.86091      5.85889      2.72195        -0.468702     -0.245045      0.260119
O       3.82856      5.90217     15.70102        -0.914961     -0.439089      0.157318
O      15.35558      5.89514      2.77083        -0.171487     -0.206778     -0.754626
O       0.03411      5.72251     15.64754        -0.444632      0.082712      0.559875
O       3.83750      5.79540      6.96951        -0.641510     -0.063987      0.265463
O      15.29170      5.97449      7.02510         0.187398     -0.130201      0.354699
O       3.92823      5.86406     11.59739        -0.640535     -0.568941     -0.943088
O      15.34076      5.93717     11.38574         0.564470     -0.093242     -0.368207
O       3.78520      9.64733      2.73909         0.426614      0.301533     -0.274860
O       3.89684      9.54414     15.75638        -0.286082      0.297257      0.215020
O       0.01610      9.63558      2.82536         0.221598     -0.285606     -1.143295
O       0.08544      9.63314     15.91276        -0.491669     -0.594978     -0.153523
O       3.75556      9.55266      6.87546         0.381783      0.322675      0.245994
O      15.32187      9.76403      7.05715        -0.431309      0.408849     -0.619921
O       3.94421      9.63920     11.36158        -0.583427     -0.352425      0.111801
O       0.07820      9.63969     11.42987        -1.751036     -0.247790     -0.386560
O       7.61248      2.05865      2.65296         0.239009      0.049593      0.183401
O       7.70088      2.18098     15.91942        -0.469276     -0.372917     -0.150710
O       7.59471     13.50964      2.77275         0.662030      0.054172     -0.050874
O       7.58033     13.37148     15.78328         0.476284      0.549670      0.151856
O       7.65714      2.03443      7.10221         0.349547      0.089064     -0.210296
O       7.60955     13.46860      7.04681         0.971786      0.237703      0.109059
O       7.72727      1.90828     11.51766        -0.218039      0.515587     -0.103908
O       7.70961     13.41717     11.37555        -0.767031      0.316016     -0.204483
O       7.70258      5.98320      2.58242        -0.214096     -0.678276      0.214709
O       7.65879      5.98875     15.93812         0.235195     -0.844838     -0.232384
O       7.64303      5.93922      7.02219         0.353677     -0.355125      0.162314
O       7.71779      6.00724     11.28600         1.042693     -0.308021      0.289777
O       7.65709      9.71889      2.44036         0.124781      0.335008      0.608663
O       7.73387      9.56141     15.98864        -0.152702      0.672471     -0.030685
O       7.63659      9.63432      7.04763         1.163711      1.126818     -0.869678
O       7.77965      9.58290     11.41743        -0.557639      0.342493     -0.286038
O      11.47037      2.08555      2.70911         0.027794     -0.602190     -0.006171
O      11.49288      2.06900     15.64388         0.404318     -0.084612      0.036628
O      11.51331     13.73346      2.81601         0.029127     -0.306230     -0.562839
O      11.48430     13.60196     15.78087        -0.253588      0.111771      0.231803
O      11.51615      2.02294      7.12687        -0.261202     -0.036454     -0.137220
O      11.46631     13.71705      7.08760        -0.006996     -0.429410     -0.421499
O      11.49826      1.97121     11.44717         0.231294      0.509841      0.331786
O      11.55391     13.56876     11.39944        -0.356278      0.168437      0.310333
O      11.53651      5.90240      2.72354         0.333279      0.153964     -0.334574
O      11.50050      5.86064     15.57912         1.145062      0.371000      0.409985
O      11.47387      6.02860      6.93547         0.576339     -0.166032      0.359166
O      11.59331      5.94706     11.53502        -0.192332     -0.729516     -0.116066
O      11.51775      9.75359      2.69368         0.502006     -0.103372      0.262555
O      11.52621      9.73191     15.80623         0.000901     -0.019264      0.170085
O      11.48203      9.77659      6.94315        -0.401948      0.090195     -0.419169
O      11.61073      9.76091     11.47299         0.158820     -0.056532     -0.253278
O       1.96720      3.85070      2.65756        -0.238082     -0.000428      0.237176
O       1.97106      3.82366     15.60950        -0.342996      1.127158     -0.011814
O       1.80748      0.20348      2.78099         0.739675     -1.350402     -0.139041
O       1.87650     15.32221     15.77410        -0.086753      1.018493     -0.159291
O      13.37498      3.95100      2.78009         0.419640      1.167588     -0.552980
O      13.50358      3.95926     15.86649        -0.616237      0.810328     -0.965193
O      13.50427      0.23856      2.62942        -0.353104     -0.419105      0.551826
O      13.50275     15.50526     15.68590        -0.255108      0.823134     -0.065770
O       1.88075      3.92596      7.17320         0.003419     -0.133837     -0.104395
O       1.97705      0.07069      7.11079        -0.539117     -0.309718      0.354899
O      13.31394      4.06227      6.89200         0.164030     -0.615847      0.479908
O      13.48625      0.21240      7.16335        -0.133986      0.120841     -0.201530
O       1.94392      3.80025     11.52435         0.281921      0.654136     -0.487204
O       1.95491     15.34279     11.37411         0.390773      0.160247     -0.012452
O      13.49862      3.90364     11.39860        -0.602321      2.339916      0.262717
O      13.46734     15.53213     11.53966        -0.193644     -0.358349     -0.320554
O       1.93131      7.63684      2.61116        -0.395689      1.040591     -0.160806
O       1.99923      7.73466     15.75738        -0.849289     -1.537273      0.305246
O      13.46500      7.79103      2.63087        -0.015147      0.413484     -0.186709
O      13.43728      7.83001     15.86693         0.312335     -0.818439      0.095108
O       1.79143      7.66518      6.96372         0.530831      0.245840      0.230280
O      13.36798      7.88694      7.03436         0.316921      0.056211     -0.053499
O       1.96731      7.73599     11.42579        -0.013471     -1.337529     -0.242965
O      13.52152      7.91852     11.36534         0.041782     -0.633479     -0.399588
O       1.85711     11.63834      2.77729         0.725605     -0.775894     -0.424825
O       2.03680     11.49716     15.74083        -0.143570      0.500005      0.464598
O      13.42137     11.73548      2.77550         0.000177      0.076122     -0.399672
O      13.42848     11.65166     15.87134         0.086253      0.401617      0.037616
O       1.83083     11.51880      6.98465         0.230790     -0.173386     -0.230697
O      13.38053     11.70201      6.99872         0.071595     -0.049097     -0.212522
O       2.02588     11.45864     11.54172        -0.188141      1.071606     -0.650290
O      13.44134     11.73903     11.43268         0.481466     -1.250814     -0.267051
O       5.76450      3.90806      2.76257        -0.063239      0.054516      0.086499
O       5.66444      3.98663     15.78687         0.418554     -0.809921     -0.068781
O       5.77462      0.11220      2.60888         0.218663     -0.090970      0.266163
O       5.85534     15.43431     15.75776        -0.287023     -0.168503     -0.101972
O       5.82477      3.91320      7.10445        -0.477657      0.065716     -0.037847
O       5.82536      0.12000      7.19649        -0.637049     -0.111270     -0.543432
O       5.95052      3.97700     11.47816        -0.757962     -0.517416     -0.124657
O       5.85066     15.44047     11.49464        -0.169405     -0.903076     -0.285673
O       5.77979      7.84851      2.68320        -0.299282     -0.623096      0.205633
O       5.76132      7.76923     15.83920        -0.067856     -0.647205      0.508036
O       5.71568      7.76822      7.00953         0.046742      0.120690      0.006150
O       5.78257      7.75767     11.51770         0.079829      0.503210     -0.604457
O       5.70132     11.60708      2.78344        -0.041833     -0.180857     -0.160165
O       5.70590     11.49479     15.78380        -0.177682      1.790906      0.368817
O       5.75355     11.59719      7.13313        -0.088334     -0.203112     -0.696636
O       5.74197     11.51885     11.34429         0.518291      0.773978     -0.123641
O       9.66939      3.92292      2.74556        -0.797603      0.587372     -0.251085
O       9.66669      4.05336     15.76761        -0.530170     -1.393610     -0.041983
O       9.46437      0.16068      2.72379         0.148109     -0.254362      0.015331
O       9.41955     15.46523     15.75964         0.291130     -0.325521      0.094413
O       9.64573      3.98950      7.13358        -0.244541     -0.614154     -0.260492
O       9.50677     15.43961      7.13101        -0.074985      0.672661     -0.385241
O       9.60900      3.94116     11.48814         0.227979      0.160450     -0.337464
O       9.59778     15.42646     11.48329         0.018194     -0.477545      0.209749
O       9.58107      7.75781      2.75455         0.263383      0.483837     -0.355544
O       9.64743      7.77587     15.92737         0.248730     -0.134773     -0.141818
O       9.58569      7.87459      6.95164        -0.032420      0.658072     -0.023652
O       9.79754      7.79602     11.32630        -0.325058     -0.133561      0.297716
O       9.67215     11.69763      2.69906        -0.439678     -0.417461      0.071393
O       9.58168     11.59635     15.89049        -0.063667      0.038877     -0.018754
O       9.58654     11.72328      6.95951        -0.157727     -1.423500     -0.094158
O       9.67087     11.59410     11.55947        -0.127962      0.029700     -0.651905
