  # total energy = -7882.67503873 
CRSYTAL
PRIMVEC
    15.3600000000000000    0.2300000000000000    0.0000000000000000
     0.0000000000000000   15.3600000000000000    0.0000000000000000
     0.0000000000000000    0.0000000000000000    17.440000000000000
PRESSURE
1.60911 1.59396 0.297535 0.114114 0.094213 -1.54146
PRIMCOORD
320 1
Pb       3.90879      3.83018      4.25860        -0.340987      0.382883      0.581330
Pb       3.80534      4.06532     17.33192        -0.075855     -1.130123      0.621937
Pb       3.71017     15.26244      4.27034         0.157464      0.182634      0.599993
Pb       3.73098     15.40587     17.33691         0.277055      0.405243      0.397419
Pb       0.00294      3.78165      4.32694        -0.189680      0.035328     -0.209437
Pb      15.29174      4.11656     17.42243         0.315386     -0.174588     -0.704144
Pb      15.27804      0.26857      4.29267        -0.277895      0.245389     -0.042299
Pb      15.25392     15.54924      0.05791         0.366853      0.193815     -0.310041
Pb       3.88499      3.97669      8.67516        -0.126233     -0.031824      0.241247
Pb       3.77633     15.29734      8.70673        -0.023621     -0.313494     -0.205991
Pb       0.09126      3.95890      8.70944        -0.148592     -0.586125      0.362534
Pb       0.02782      0.03856      8.63155        -0.008543     -0.157744     -0.040322
Pb       3.98714      3.97171     13.07520        -0.510866      0.151412     -0.608577
Pb       3.75075      0.20201     13.08529         0.302797     -0.588664     -0.004438
Pb       0.05745      3.81670     13.12061        -0.237717      0.566918     -0.723067
Pb       0.01498      0.03126     13.04424         0.033308     -0.005678     -0.203425
Pb       3.87212      7.71843      4.18724        -0.177714      0.144314      0.753409
Pb       3.75063      7.88349     17.35841         0.203904     -0.244819      0.095642
Pb      15.20649      7.77788      4.21590        -0.064266      0.107791      0.367793
Pb      15.32268      7.90765     17.33125         0.357668     -0.197458     -0.032707
Pb       3.81188      7.67261      8.64599        -0.096858      0.312161     -0.334932
Pb      15.26519      7.96191      8.53077         0.486412      0.495911      0.737321
Pb       3.93604      7.76226     13.00080        -0.273795     -0.046327     -0.045986
Pb      15.31999      7.87616     12.95738         0.460134     -0.450058      0.561504
Pb       3.98531     11.47367      4.39586        -0.395293      0.197222     -0.000642
Pb       3.86275     11.55802     17.39014        -0.321824     -0.157304     -0.278907
Pb      15.35720     11.63156      4.26921        -0.000873      0.125508     -0.146890
Pb       0.11481     11.54713     17.35258         0.123636     -0.201788      0.220115
Pb       3.62088     11.46054      8.69550         0.219833      0.483747     -0.652418
Pb      15.24429     11.66483      8.55591         0.490847     -0.033548      0.448648
Pb       3.82839     11.62567     13.03254        -0.128827     -0.667562      1.045011
Pb       0.03112     11.49337     12.91446        -0.461107      0.360917      1.337641
Pb       7.56751      3.76489      4.40343         0.192948      0.921539      0.174082
Pb       7.63346      4.04242      0.00173        -0.166868     -0.259323     -0.222781
Pb       7.55705     15.45056      4.38103         0.180064      0.360092      0.016022
Pb       7.70842      0.12604      0.08431        -0.392288      0.506960     -0.629069
Pb       7.68213      3.94273      8.72113         0.007340     -0.192838     -0.102356
Pb       7.69341     15.41282      8.79462        -0.478762      0.148158     -0.538078
Pb       7.74789      3.91066     13.04587        -0.176573     -0.036294      0.247441
Pb       7.63558     15.41794     13.09467        -0.159247     -0.047416      0.308505
Pb       7.68194      7.85082      4.29487         0.129459     -0.442504      0.403575
Pb       7.81338      7.84023     17.40578        -0.642891     -0.670567      0.076965
Pb       7.72560      7.80699      8.71467        -0.372325     -0.103683     -0.155197
Pb       7.64243      7.63855     13.03395         0.207828      0.574975     -0.017309
Pb       7.81567     11.65415      4.36075        -0.363953      0.014926     -0.024353
Pb       7.67872     11.72932     17.43210         0.211847     -0.457210     -0.184168
Pb       7.50641     11.64715      8.80349        -0.013835     -0.208865     -0.501411
Pb       7.61056     11.48916     13.01123         0.892235     -0.146711     -0.019193
Pb      11.50846      4.06013      4.28291        -0.260426      0.016094      0.464725
Pb      11.38305      3.88459     17.30561         0.602961      0.569533      0.457997
Pb      11.42377      0.23575      4.36787         0.050395     -0.039116     -0.470505
Pb      11.49322     15.47923     17.41248        -0.137908      0.083201      0.342441
Pb      11.42210      3.94319      8.68338         0.198761     -0.233962      0.326603
Pb      11.61304     15.42215      8.64512        -0.134130      0.271419      0.573636
Pb      11.48349      3.82244     12.95586         0.231989      0.588918      0.542259
Pb      11.58181     15.53150     13.10999        -0.198084     -0.225066     -0.027915
Pb      11.50828      7.76822      4.20987        -0.035621      0.344324      0.677832
Pb      11.57654      7.85696     17.37565        -0.027379     -0.306030     -0.269183
Pb      11.43860      7.76141      8.69654         0.129307      0.376994     -0.410181
Pb      11.44526      7.73218     13.12672        -0.120803     -0.026902     -0.398317
Pb      11.53408     11.81092      4.32984        -0.511498     -0.464921     -0.728532
Pb      11.59395     11.56593      0.06434        -0.491683      0.224033     -0.057312
Pb      11.35645     11.68034      8.72837         0.405295     -0.380746     -0.098209
Pb      11.62779     11.57596     13.11073        -0.606238      0.621759     -0.460742
Ti       1.88845      1.86106      2.32407        -0.790536      1.013136     -0.692966
Ti       1.91787      1.95650     15.30738        -0.317968      0.644253      1.914614
Ti       1.84508     13.39979      2.31108         0.470681     -0.282165      0.006089
Ti       1.91742     13.54875     15.40228        -0.386974     -1.450853     -1.237388
Ti      13.29356      2.20000      2.27124         1.575669     -0.958217      0.322118
Ti      13.42170      2.00910     15.46051         0.077559      1.965229     -0.392012
Ti      13.41119     13.66484      2.32768        -0.503079      0.427364     -0.523911
Ti      13.36361     13.60095     15.49898         1.247955     -0.597984     -0.829155
Ti       2.01479      2.01901      6.74193        -0.795651     -1.353260     -0.384990
Ti       1.79025     13.50609      6.58423         0.917045     -1.055437      0.867687
Ti      13.43366      2.15059      6.79279         0.276201     -0.292542     -0.401732
Ti      13.31979     13.53055      6.57320         0.720309      0.654463      2.304615
Ti       1.89134      2.02427     10.96686        -0.048156     -0.656436      1.098505
Ti       1.86597     13.48563     11.19479         0.726950      0.651840     -0.269805
Ti      13.38417      2.09525     11.03533         0.719413      0.339038     -0.421649
Ti      13.41271     13.64957     11.01408        -0.291267     -0.665996      0.739364
Ti       1.92850      5.72336      2.32489        -0.227129      0.112975     -0.145845
Ti       1.98274      5.81847     15.30342        -1.217314      0.159644     -0.240728
Ti      13.36636      5.90955      2.17526         0.544464      0.452008     -0.493755
Ti      13.41576      5.88383     15.35813         0.186303      0.437331      1.047141
Ti       1.85944      5.77378      6.62129         1.034226      0.934302      0.190491
Ti      13.40911      5.89299      6.86632        -0.624270      0.879903     -1.785232
Ti       1.92178      5.84797     11.03804        -0.047238     -0.596778      0.189892
Ti      13.36032      5.95365     10.91217         1.195703     -0.733813      0.989897
Ti       1.83681      9.55052      2.32337         0.616469      0.454504     -0.767705
Ti       1.90101      9.68172     15.27943         1.117280     -0.111789      1.158131
Ti      13.32350      9.77397      2.30034         0.438812     -0.238657      0.755197
Ti      13.48993      9.84926     15.37824        -0.021278     -1.258718      0.619524
Ti       1.90466      9.62089      6.53009        -0.205114      0.215764      2.025187
Ti      13.33260      9.75738      6.57331         0.336781     -0.402914      0.002318
Ti       1.90128      9.65752     11.08866         0.448198     -0.483553     -1.361385
Ti      13.40582      9.71904     11.14542        -0.004002      0.854289     -1.631045
Ti       5.64535      1.93481      2.30815         0.760382      1.258905     -1.295681
Ti       5.75525      1.99904     15.38762        -0.000992     -0.423376      0.079272
Ti       5.69427     13.50993      2.26169        -0.092340     -0.773096      0.987393
Ti       5.76781     13.55021     15.51665        -0.547098      0.475968     -0.673541
Ti       5.77251      1.96912      6.79843         0.299905     -0.486861     -0.256737
Ti       5.71778     13.55545      6.61192        -1.293668     -0.749907      0.779515
Ti       5.72981      1.97700     11.09797        -0.010290     -0.053700      0.320741
Ti       5.72311     13.46654     11.16590         0.203834      0.793993     -0.366876
Ti       5.71367      5.86444      2.31398         0.393579     -0.722605     -0.383350
Ti       5.76635      5.83872     15.42090         0.669836      0.522367     -0.124443
Ti       5.76053      5.82395      6.75041        -0.495824      0.420999     -0.001064
Ti       5.81417      5.78614     10.98674        -0.789875      1.488498     -0.128426
Ti       5.79825      9.73780      2.29759        -1.487241     -0.199650     -0.681376
Ti       5.85985      9.67390     15.50476        -1.100383     -0.580907      0.644082
Ti       5.79018      9.70596      6.69162        -0.741434      0.078436      1.372312
Ti       5.71398      9.62887     10.95454         0.774948     -0.451354     -1.687652
Ti       9.51162      2.08315      2.28563         0.136660      0.232708     -1.076296
Ti       9.55994      2.03070     15.42689        -0.114307      0.821994     -0.323083
Ti       9.48130     13.63166      2.20855         1.396361     -0.309401     -0.006166
Ti       9.55354     13.63423     15.46497         0.204790     -1.269006      0.029523
Ti       9.60875      1.99260      6.76359        -0.576571      0.037014     -0.535262
Ti       9.51364     13.57324      6.73635         0.230496     -0.007025     -0.299037
Ti       9.51019      1.88327     11.10211         0.802596      1.627198     -0.103654
Ti       9.61679     13.53849     11.10714         0.179250     -1.284552      0.776619
Ti       9.51105      5.87295      2.27547        -0.066988     -0.173045     -0.063969
Ti       9.58740      5.84564     15.38650        -0.424174      0.611153      0.313031
Ti       9.53227      5.79000      6.71289         0.463981      0.621847     -0.831053
Ti       9.60565      5.78521     10.98301        -0.529925      0.546777     -0.538264
Ti       9.49030      9.74353      2.30559         1.504073      0.369343      0.025134
Ti       9.57936      9.71014     15.44795        -0.024837      0.159868     -1.305052
Ti       9.51455      9.71673      6.72951         1.382914     -0.204637     -1.366449
Ti       9.61753      9.60264     11.05766        -0.429485      1.106001      0.018908
O       1.93820      1.91162      0.57403        -0.335401     -0.303102      0.273410
O       1.73485      1.95423     13.56710         0.371748     -0.096013     -0.113876
O       2.07907     13.50674      0.55158        -1.134883     -0.107836      0.085916
O       1.89145     13.59027     13.61158        -0.078905     -0.062918      0.191875
O      13.38064      2.22412      0.52841        -0.113214     -0.393785     -0.954267
O      13.43054      2.06012     13.68768        -0.000225      0.108801     -0.313330
O      13.48952     13.76742      0.55336        -0.057523     -0.202034     -0.234616
O      13.43551     13.43410     13.73356        -0.384140      0.499729      0.714492
O       1.88478      1.88138      4.97589         0.092333      0.348925      0.139348
O       1.86539     13.30731      4.85821         0.038467      0.521179     -0.891646
O      13.47578      2.24988      5.04243        -0.054948     -0.359249     -0.271360
O      13.34971     13.64283      4.86232        -0.417773     -0.105341     -1.593269
O       1.97254      1.87797      9.25119         0.043468      0.311588     -1.226222
O       1.91384     13.45065      9.44715         0.172896     -0.062664     -0.353255
O      13.23481      2.07492      9.29303         0.345690     -0.206203     -0.674239
O      13.37753     13.58004      9.26184        -0.018152      0.169921      0.488145
O       2.07194      5.76568      0.56066        -0.621507     -0.072441      0.339655
O       1.88859      5.80497     13.53367         0.367624     -0.344785      0.396499
O      13.50716      6.02561      0.37967        -0.389640     -0.362318      1.041218
O      13.43066      5.91993     13.61618        -0.215579      0.149593     -0.406376
O       1.90877      5.68770      4.88181        -0.305534      0.049821     -0.240343
O      13.40321      5.98867      5.05728        -0.026626     -0.163703      0.458154
O       1.94286      5.81599      9.24581        -0.038329     -0.010310      0.542444
O      13.42809      6.02371      9.13616        -0.001912     -0.035487      0.436812
O       1.94179      9.63361      0.53254         0.022310     -0.117596      0.650465
O       1.98962      9.70108     13.56175        -0.047981     -0.416101     -1.037320
O      13.35814      9.78192      0.56227         0.053495     -0.327993     -0.611857
O      13.45301      9.84435     13.59763        -0.024798     -0.065120      0.333382
O       1.81756      9.72587      4.82568        -0.045694     -0.108208     -1.591712
O      13.36022      9.54511      4.81099         0.206474      0.717347     -0.461062
O       1.94508      9.73682      9.28111        -0.017847     -0.236217      0.752629
O      13.28510      9.82853      9.38625         0.357442     -0.309412      0.177340
O       5.65865      2.06193      0.53741         0.426499     -0.286859      1.006596
O       5.83103      1.85375     13.59675        -0.400343      0.744497      0.607960
O       5.65789     13.45486      0.53187         0.149936      0.128997     -0.708724
O       5.79757     13.67916     13.77315         0.205888     -0.440198     -0.740177
O       5.86425      1.99237      5.03728        -0.325091     -0.171794     -0.864974
O       5.60212     13.50196      4.87268         0.352545      0.275151     -1.336679
O       5.79947      1.99515      9.35565         0.119453     -0.121507     -0.668881
O       5.59818     13.49921      9.41427         0.447521      0.038650      0.342865
O       5.59058      5.76598      0.54835         0.533609      0.042273      0.570002
O       5.88637      5.81562     13.61466        -0.515739      0.211517      0.476548
O       5.63625      5.68525      5.03082         0.453123      0.534014     -0.896021
O       5.67595      5.91770      9.22846         0.183557     -0.578929     -0.450535
O       5.76539      9.78509      0.51834         0.072262     -0.006927      0.408357
O       5.88594      9.48392     13.78738        -0.064881      0.372677     -1.165799
O       5.89406      9.66943      4.96415        -0.007583      0.065716     -1.108328
O       5.72838      9.69830      9.08477         0.105589      0.038808      1.759039
O       9.60419      2.10375      0.42485        -0.355269     -0.156144      1.933796
O       9.57503      2.04782     13.64754         0.177149      0.030070     -0.359102
O       9.56583     13.68810      0.41691        -0.197358     -0.057835      0.814468
O       9.55038     13.56149     13.71730         0.072980      0.156934      0.331077
O       9.46942      2.09114      5.01878         0.295042     -0.673662     -0.927296
O       9.63887     13.60867      4.97328        -0.132041     -0.103556     -0.691611
O       9.72100      2.12400      9.36567        -0.692946     -0.599126     -0.558280
O       9.59486     13.47600      9.35779         0.023181      0.252398     -0.809481
O       9.44165      5.94676      0.51098         0.399576     -0.562089      0.467785
O       9.44634      5.90748     13.62122         0.504050     -0.182729     -0.630309
O       9.46312      5.73982      4.94809         0.490465      0.278455     -0.037167
O       9.61266      5.85920      9.17852        -0.074094     -0.205023      0.744338
O       9.61287      9.82155      0.55132        -0.355561     -0.379883      0.091011
O       9.42506      9.57877     13.64801         0.633981      0.292118      0.688558
O       9.40486      9.71070      4.91540        -0.020690      0.348239      0.214702
O       9.60989      9.68954      9.27456         0.218403     -0.012961     -0.262293
O       3.80907      1.99562      2.67227         0.075903     -0.994518      0.462306
O       3.79271      2.05299     15.75799        -0.258307     -0.614076     -0.672860
O       3.74545     13.51569      2.66957         0.733417     -0.402818      0.322638
O       3.79120     13.55392     15.83348         0.792658     -0.518651     -0.088035
O      15.23471      2.18348      2.62821         1.261079     -0.124195      0.592326
O      15.30455      2.07086     15.88734         0.551856      0.321712     -0.211525
O      15.27615     13.71786      2.69349         0.571817     -0.140860      0.226330
O       0.00252     13.43891     15.82721        -0.538267      0.270166      0.479160
O       3.91872      1.85504      7.16534        -1.163421      0.743944     -0.064057
O       3.79995     13.42793      7.06859        -0.489638      0.523670      0.057681
O       0.09322      1.94299      7.20592        -0.816443     -0.277959     -0.003984
O      15.27645     13.69809      6.93985        -0.187786      0.134025      0.306898
O       3.82565      2.03959     11.45787         0.527487     -0.006246      0.217510
O       3.83668     13.50372     11.80122         0.755654      0.307296     -1.451694
O      15.33851      2.12112     11.29280        -0.382171     -0.251177      0.443559
O       0.01127     13.43720     11.53321        -1.251586      0.310615     -0.350311
O       3.80269      5.81658      2.80804         0.588041     -0.234248     -0.184440
O       3.88086      5.74614     15.74045        -0.452130      0.577244     -0.460539
O      15.25983      5.96332      2.68947         0.910881     -0.369103     -0.258977
O      15.35378      5.94505     15.74984         0.300475      0.170556      0.044156
O       3.80926      5.81210      7.09768        -0.266514     -0.188716      0.232172
O      15.34332      6.03524      7.14192         0.534720     -0.067469     -0.198971
O       3.82932      5.77823     11.41661         0.440310     -0.138284      0.347051
O       0.03989      5.77390     11.53783        -0.685043     -0.348845     -0.766278
O       3.85619      9.67327      2.73650        -0.262275      0.051364      0.057485
O       3.88175      9.69029     15.86008        -0.364729      0.058970     -0.324457
O      15.28823      9.65423      2.58976         0.190008      0.302952      0.491972
O       0.09913      9.58960     15.85346        -1.265176      0.210044     -0.379915
O       3.80787      9.74743      6.93013         0.046057     -0.195763     -0.039559
O      15.26294      9.76711      7.05455         0.983883      0.415228     -0.231940
O       3.90652      9.62338     11.41410        -0.559008      0.311441      0.264797
O       0.05150      9.70154     11.39303        -0.700077     -0.974510      0.116498
O       7.61037      2.10806      2.80496         0.219322     -0.705715     -0.715077
O       7.69139      2.04619     15.75668        -0.698350     -0.067386      0.344211
O       7.66227     13.41933      2.52618        -0.744806      0.545062      0.362059
O       7.68318     13.69686     15.92619        -0.196980     -0.110327      0.004200
O       7.65992      1.83520      7.12065         0.801244      0.518095      0.929794
O       7.58691     13.60874      6.98959         1.484725     -0.056281      0.694350
O       7.65267      2.00776     11.52479         0.466935      0.029436     -0.314252
O       7.74130     13.46680     11.43638        -1.436874      0.099742      0.278300
O       7.65302      5.68832      2.68963        -0.226235      0.869356     -0.187562
O       7.66287      5.86976     15.86714        -0.343364     -0.165222      0.058592
O       7.69579      5.87874      7.18221        -0.425231     -0.384067      0.025798
O       7.68437      5.89389     11.30637         0.606753      0.061340      0.046874
O       7.60511      9.74519      2.78663         1.446764     -0.010941     -0.194905
O       7.72272      9.63634     15.93718        -0.178064      0.226546     -0.069000
O       7.73241      9.72116      7.18506        -1.258687      0.097816      0.131462
O       7.68183      9.61619     11.38374        -0.411843      0.236809     -0.009247
O      11.48847      2.09886      2.69521        -1.593224     -0.426140      0.427017
O      11.51085      2.09844     15.82479        -0.154891     -0.030067     -0.061454
O      11.50317     13.65953      2.49709        -0.803641      0.115688      1.018087
O      11.50540     13.46070     15.89370        -0.273675      0.501583     -0.206518
O      11.47007      2.20553      7.01058         1.531891     -0.319100      0.378061
O      11.45005     13.49596      7.09942         1.052118     -0.041394     -0.076745
O      11.49807      2.05102     11.54369        -0.665233     -0.177680      0.034794
O      11.49906     13.65572     11.60686         0.598719     -0.625911     -0.456966
O      11.48718      5.97325      2.65580        -0.399980     -0.781636     -0.102457
O      11.42713      5.97490     15.80527         1.420717     -0.044288     -0.235194
O      11.51173      5.90439      7.16202        -0.394141     -0.333894     -0.154566
O      11.51710      5.89949     11.31435        -0.195712      0.076955      0.262700
O      11.45398      9.76151      2.64226        -0.529828     -0.159689      0.438872
O      11.52170      9.79977     15.83013         0.244562     -0.098396     -0.386522
O      11.50256      9.82792      6.86567        -1.057024      0.120653      0.815161
O      11.55568      9.58293     11.50073        -0.697067      0.475707      0.554757
O       1.97161      3.78840      2.73116        -0.573315      0.586379     -0.009881
O       1.93468      3.91931     15.74232        -0.541405     -1.001480     -0.201440
O       1.83529     15.32548      2.83166        -0.036860      0.440967     -0.375887
O       1.90085     15.36404     15.72439        -0.040430      1.901965      0.338370
O      13.36814      4.04854      2.74989        -0.066778      0.593463     -0.151815
O      13.38340      4.06029     15.76811         0.149004     -0.663949      0.158222
O      13.38776      0.28192      2.74895        -0.031442     -0.596394      0.189987
O      13.31259     15.54317     15.76689         0.267645     -1.210414      0.343646
O       1.88598      3.89544      7.14285         0.456612     -0.138941     -0.198303
O       1.92521     15.36906      7.07528        -0.094810     -0.000570      0.127317
O      13.57140      4.03842      7.16191        -0.433395     -0.099436      0.314949
O      13.34374     15.53833      7.11812         0.253398      0.070757     -0.417490
O       1.90624      3.84957     11.45569        -0.104891      0.555603     -0.116802
O       1.97350      0.04885     11.40307        -0.190846      0.223463      0.488125
O      13.38514      4.00493     11.31448         0.095183      0.615364      0.353458
O      13.29190     15.55618     11.49976         0.996951     -0.753996     -0.182104
O       2.00097      7.65742      2.67188        -0.485525      0.042473      0.192668
O       1.95393      7.70373     15.60132         0.205123      0.064695      0.637266
O      13.35711      7.77156      2.68641        -0.060043      0.376999     -0.140466
O      13.54176      7.92953     15.83208        -0.783522      0.255765     -0.462370
O       1.94606      7.74977      6.94975        -0.210159     -0.539443      0.097100
O      13.41346      7.95864      7.14159        -0.471431     -1.180617      0.229084
O       1.96792      7.73786     11.48258        -0.143751      0.068575     -0.187983
O      13.48877      7.79937     11.45719        -0.131401      0.042714     -0.121008
O       1.70664     11.48638      2.62739         0.329033      0.449351      0.121731
O       1.94122     11.56859     15.58334        -0.067960      0.161608      0.912040
O      13.35833     11.67563      2.63094         0.255523      0.552566      0.407785
O      13.52156     11.63049     16.04346        -0.404067      0.854066     -0.763165
O       1.80352     11.55804      7.06720        -0.018738     -0.109633      0.009426
O      13.48848     11.66835      7.03180        -0.575271      0.566000     -0.591278
O       1.92952     11.52285     11.57086         0.806390      0.621047     -0.352923
O      13.45678     11.69272     11.45557        -0.613695      0.592384      0.155844
O       5.70892      3.94362      2.78639        -0.234226     -0.578181     -0.276938
O       5.73353      3.89522     15.74730         0.343759      0.332862      0.030193
O       5.79296     15.37851      2.67301        -0.147653      0.452118      0.113333
O       5.67222      0.11814     15.88773         0.435895      0.264590      0.206293
O       5.76853      3.91776      7.13725         0.261450     -0.612669      0.497773
O       5.81105     15.38670      7.08184        -0.577415      0.479908      0.621784
O       5.89023      4.00607     11.41753        -0.607689     -1.772094      0.347424
O       5.87577      0.12506     11.50563        -0.755097     -1.271463     -0.342211
O       5.77527      7.80769      2.68403         0.071811     -0.886059      0.141441
O       5.73847      7.74284     15.96407         0.177566     -0.257990     -0.413673
O       5.75564      7.74761      7.07643         0.136491      0.385138     -0.022497
O       5.72587      7.73768     11.34480         0.063435      0.127683      0.362414
O       5.74737     11.57555      2.79111        -0.138013      0.891660     -0.140667
O       5.83669     11.63653     15.78371         0.044063     -0.054475      0.130718
O       5.73557     11.64898      6.98330         0.709980     -0.721151      0.421376
O       5.78111     11.50966     11.40125        -0.082441      0.894468      0.385526
O       9.63495      3.90569      2.71318        -0.094483      0.532985     -0.287709
O       9.62423      4.00201     15.80608        -0.457143     -0.714714     -0.088806
O       9.40531      0.16353      2.75701         0.634915     -0.189500     -0.238581
O       9.60700      0.23395     15.89346         0.237920     -1.812137     -0.232731
O       9.59183      3.87125      7.06466        -0.694300      1.230812      0.820271
O       9.81905     15.46088      7.10841        -1.023959     -0.002949      0.257367
O       9.49165      3.92464     11.43664         0.657851      0.414633      0.065722
O       9.55646     15.44214     11.44799         0.069542     -0.169012      0.076271
O       9.57922      7.81559      2.60000        -0.773243     -0.064186      0.351384
O       9.59808      7.72689     15.77203        -0.158485      1.588248      0.517216
O       9.58731      7.77213      6.95226         0.047188      0.442722      0.695987
O       9.61715      7.74705     11.38654         0.160055     -0.720559      0.268384
O       9.60777     11.71939      2.68410        -0.046921     -0.360515      0.303605
O       9.43336     11.60156     15.82687         0.415643      0.734000     -0.244798
O       9.54797     11.71745      7.12620        -0.292024     -0.984582      0.098231
O       9.62598     11.55968     11.47228         0.292658      0.046279      0.184404
