  # total energy = -7882.28743340 
CRSYTAL
PRIMVEC
    15.3600000000000000    0.2300000000000000    0.0000000000000000
     0.0000000000000000   15.3600000000000000    0.0000000000000000
     0.0000000000000000    0.0000000000000000    17.440000000000000
PRESSURE
1.56614 1.84132 0.998835 -0.126659 0.314674 -1.6246
PRIMCOORD
320 1
Pb       3.70449      3.73797      4.54926         0.193099      0.612513     -0.485991
Pb       3.86649      3.90399     17.35458         0.208059      0.487107     -0.235259
Pb       3.74017      0.13557      4.31367        -0.022740     -0.587807      0.155984
Pb       3.80671      0.09386     17.36144         0.264120     -0.255806      0.217399
Pb      15.18014      3.90962      4.20340         0.796227      0.382024      1.189182
Pb      15.29103      4.08835     17.19875        -0.039707     -0.254714      0.703851
Pb       0.04335     15.24738      4.29607        -0.144030     -0.043957     -0.237367
Pb       0.03040     15.34552     17.30770        -0.231539      0.028507      0.324855
Pb       3.81038      3.94055      8.77540         0.112453     -0.370799      0.173835
Pb       3.82447     15.40586      8.75249         0.158652     -0.030678      0.163262
Pb      15.31338      4.06746      8.73581         0.077762      0.352866     -0.180609
Pb      15.31754      0.32951      8.71478         0.006952     -0.644740      0.403324
Pb       3.76120      3.95334     12.98375         0.200390     -0.668291      0.217685
Pb       3.94825     15.39354     13.00013        -1.237332      0.324731      0.277972
Pb       0.04077      3.87383     12.99552         0.432479     -0.417046      1.110948
Pb       0.03884     15.30590     13.07944         0.283669     -0.108832     -0.433869
Pb       3.72862      7.62960      4.40182         0.524885      0.479103     -0.239353
Pb       3.91467      7.77308     17.41112         0.278805     -0.445513     -0.013689
Pb       0.09195      7.63782      4.26330        -0.387942     -0.026914      0.152736
Pb       0.08816      7.71524     17.43307        -0.212915     -0.288842     -0.513763
Pb       3.68789      7.85752      8.61724         0.389224     -0.455245      0.440917
Pb       0.00106      7.73882      8.68058        -0.161979     -0.207589     -0.151650
Pb       3.87222      7.98441     13.09502        -0.267573     -0.977364     -0.145972
Pb      15.30607      7.94332     13.02686         0.328265     -0.412202      0.373459
Pb       3.82302     11.70994      4.40710         0.221665     -0.615210      0.346233
Pb       3.80265     11.66289     17.36841         0.699480     -0.519305      0.754089
Pb      15.29345     11.83106      4.31958         0.286483     -0.076302      0.248434
Pb      15.35191     11.57639      0.05678         0.104182      0.303780     -0.080121
Pb       3.67377     11.67464      8.63453         0.500813     -0.807361      0.169955
Pb      15.15261     11.70308      8.75543         0.726085      0.052524     -0.779718
Pb       3.82882     11.60129     13.11864        -0.081160      0.428465     -0.562586
Pb       0.00453     11.49268     13.17421         0.007069      0.264940     -0.915062
Pb       7.60874      3.92789      4.39904         0.015416      0.226777     -0.077739
Pb       7.68055      3.82005     17.37312        -0.192300      0.394923     -0.216956
Pb       7.48917      0.25592      4.38543         0.695176     -0.626355      0.308473
Pb       7.47379     15.40450     17.25287         0.977927      0.051837      0.772151
Pb       7.70063      4.05209      8.76095        -0.263620     -0.241301     -0.100194
Pb       7.53903      0.21619      8.73037         0.947022     -0.673150      0.167356
Pb       7.68627      3.82887     13.03741        -0.088632      0.149918     -0.108131
Pb       7.69045     15.47188     12.99899         0.548786     -0.345621     -0.095884
Pb       7.66880      7.82698      4.28210         0.018596     -0.212025      0.296252
Pb       7.68109      7.85925      0.00447        -0.191072     -0.664106     -0.196056
Pb       7.64564      7.69239      8.53411        -0.190891      0.052590      0.836077
Pb       7.67817      7.72701     12.99973         0.039510      0.518153     -0.033393
Pb       7.62703     11.59165      4.20516        -0.294459     -0.025000      0.978659
Pb       7.85722     11.63449     17.41461        -0.862260     -0.092117     -0.122732
Pb       7.60606     11.60903      8.56118        -0.107823      0.046485      0.602420
Pb       7.71185     11.42249     12.92277        -0.004338      1.256808      0.822168
Pb      11.51587      3.85626      4.21971        -0.186402      0.150178      0.324095
Pb      11.48197      3.96831     17.32471         0.064762     -0.084372     -0.145725
Pb      11.44064      0.17298      4.21741         0.450654      0.062754      1.025703
Pb      11.54173     15.38768     17.36981        -0.362772      0.446213     -0.333242
Pb      11.59558      4.15267      8.64451        -0.409969     -0.342791      0.483538
Pb      11.55121     15.45739      8.76268        -0.721693      0.201373     -0.224265
Pb      11.67211      4.01423     13.07222        -0.483019     -0.145820      0.289169
Pb      11.47870     15.21699     13.12744        -0.125159      0.389363     -0.364221
Pb      11.51199      7.82190      4.29447        -0.106507     -0.192393     -0.028773
Pb      11.57473      7.82166     17.41417        -0.257825     -0.450666     -0.204906
Pb      11.44409      7.89400      8.60029         0.286861     -0.533814      0.405604
Pb      11.56283      7.73697     12.97147         0.060914      0.248201     -0.028473
Pb      11.40674     11.80157      4.47000         0.398917     -0.546165     -0.298172
Pb      11.59014     11.59868      0.02543        -0.086205      0.199028      0.055788
Pb      11.47822     11.58825      8.57189         0.348856      0.555592      0.147483
Pb      11.44593     11.55618     13.15464         0.058763      0.476087     -0.453214
Ti       1.87425      2.00886      2.23234         0.414781     -1.716537      0.340140
Ti       1.89327      1.97824     15.46323         0.100225     -0.799596     -2.272274
Ti       2.03002     13.46439      2.29088        -1.083971     -0.449153     -0.298339
Ti       1.91116     13.43244     15.47746         0.360333      0.105040     -0.192564
Ti      13.45364      2.02633      2.21416         0.221294      0.137673     -0.052971
Ti      13.36865      2.05860     15.30583         0.188194      0.010499      0.621660
Ti      13.40830     13.60533      2.30429         0.599209     -0.972622      0.852743
Ti      13.48707     13.54818     15.38781        -0.476881      0.635262     -0.566644
Ti       1.82679      1.92731      6.78442         1.051598      0.327373     -0.316532
Ti       1.83799     13.54771      6.82387         0.339070     -1.798352     -0.207688
Ti      13.37054      2.10363      6.75172        -0.200507     -0.041454     -2.199032
Ti      13.40680     13.66422      6.67090         0.759741     -0.884459      0.222242
Ti       1.89717      1.86660     11.15988         1.237803     -0.208413     -0.367344
Ti       1.90484     13.33909     10.96390        -0.204358      1.028973      0.472530
Ti      13.39608      2.05807     11.14979         0.304280     -0.419440      1.260979
Ti      13.43747     13.53989     11.01974         0.869746      0.305575      0.009601
Ti       1.91751      5.71923      2.27315         0.589194      0.521986     -0.835404
Ti       1.97971      5.80151     15.42968        -0.558762      0.617567      0.155026
Ti      13.40797      5.86243      2.35266        -0.270238      0.734143     -0.375207
Ti      13.41348      5.93375     15.41072         0.350828     -0.239331      0.038457
Ti       1.89038      5.71981      6.74041        -0.866060      0.539929      0.517519
Ti      13.40231      5.94360      6.49524         0.935625     -0.135633      0.888939
Ti       1.93346      5.80748     11.03334        -0.029053      0.006535      0.543063
Ti      13.51977      5.86558     11.07785        -0.801150      1.244166      0.437531
Ti       1.92635      9.63144      2.37515         0.548655      0.668320      0.190885
Ti       1.97504      9.65082     15.34751        -0.717206     -0.801684      0.502305
Ti      13.49020      9.76033      2.39842        -0.279469      0.363543      0.563222
Ti      13.39354      9.78227     15.31045         0.641162     -0.547516      0.297717
Ti       1.87931      9.64227      6.57516        -0.239440      0.640647      1.448532
Ti      13.39873      9.68753      6.61606         1.308376      1.713279      0.308954
Ti       1.86803      9.55352     11.00160        -0.380742      0.718886      0.261942
Ti      13.40329      9.81177     11.00445         0.534537     -0.706880      0.647874
Ti       5.73455      2.00645      2.29097        -0.557684     -0.485680      0.068091
Ti       5.69757      1.99256     15.26365         0.426354      0.185961      0.702664
Ti       5.75354     13.53486      2.40372         0.154722     -0.384374     -1.344736
Ti       5.73267     13.51978     15.30072         0.122173     -1.205312      0.054931
Ti       5.66864      2.02145      6.72514         0.511061      0.614502      0.625605
Ti       5.76080     13.51008      6.79487        -0.022963     -1.261705     -0.242830
Ti       5.83596      2.00642     11.03622        -1.958921      0.389701      0.861146
Ti       5.74835     13.49246     11.07085        -0.194468      0.561114     -1.720323
Ti       5.70756      5.81596      2.37358        -0.424923      0.259723     -0.673248
Ti       5.79497      5.79160     15.29765        -0.218521      0.711581      0.869480
Ti       5.67527      5.83780      6.66551         0.502975     -0.322207      0.468518
Ti       5.74178      5.88152     11.16406        -0.427376     -0.468644     -0.522106
Ti       5.72444      9.58817      2.35966        -0.288533      0.842700     -0.952530
Ti       5.73737      9.67843     15.37231         0.661984      0.076934      1.147100
Ti       5.73925      9.62212      6.69321        -0.925357      0.832765      0.076126
Ti       5.73475      9.68144     10.94932         0.210362      0.262632     -0.040445
Ti       9.55003      2.02046      2.27011         0.182174     -0.411757     -0.548521
Ti       9.55418      2.00339     15.31588        -0.390263     -0.546552      1.143940
Ti       9.54938     13.58482      2.40884         0.015014     -0.471430      0.200093
Ti       9.59744     13.51165     15.45055         0.039379      1.151852     -2.195064
Ti       9.56258      2.11946      6.79963        -0.211228     -0.820612      0.420045
Ti       9.64708     13.65334      6.72065        -1.460341     -0.103799      2.068134
Ti       9.68515      2.07610     11.01062        -0.428048     -1.218231      0.310770
Ti       9.56854     13.54423     10.97579         0.115264      0.968555      0.107383
Ti       9.51850      5.78827      2.31126         0.381055      1.015588     -0.351797
Ti       9.53659      5.83414     15.35384         0.149189      0.218305      1.563626
Ti       9.58101      5.89005      6.69011        -0.195133     -0.553704     -0.619041
Ti       9.55577      5.82637     11.15788         0.773509      0.412959     -1.189095
Ti       9.68600      9.65655      2.34092        -0.178373      0.423960      0.153731
Ti       9.62482      9.67521     15.42151        -0.308741     -0.270182      0.395624
Ti       9.55638      9.72381      6.68799         0.044817      0.002867     -1.164815
Ti       9.62299      9.72000     10.93883        -0.027899     -0.104168      0.639999
O       1.71855      1.77285      0.51771         0.519214      0.696383     -0.967156
O       2.08570      1.83932     13.67822        -0.766420      0.283813      0.725511
O       2.02928     13.36554      0.51170        -0.070113      0.390546      0.316047
O       1.98289     13.37053     13.72221        -0.179704     -0.347756      0.122885
O      13.48741      2.18287      0.46877        -0.302309     -0.439141      0.096974
O      13.34616      2.03734     13.56650         0.160963     -0.081636     -0.561843
O      13.38739     13.48057      0.55965        -0.293910      0.400944     -0.285116
O      13.48040     13.51421     13.59091         0.129140      0.389909      0.887431
O       2.06532      1.87289      5.02162        -0.538127      0.398282     -0.407419
O       1.97373     13.49833      5.07904        -0.189810      0.264621     -1.102629
O      13.36055      2.13658      4.91869         0.246852     -0.007310      1.449710
O      13.43245     13.57298      4.90506         0.036581      0.426646     -0.383023
O       1.85999      1.90937      9.36855        -0.102131     -0.059864     -0.267931
O       1.87693     13.31025      9.19197         0.118230      0.888545     -0.358242
O      13.56879      2.18329      9.44121        -0.080449     -0.203861     -1.772913
O      13.47940     13.49817      9.20572        -0.399337      0.572579      1.308639
O       1.97071      5.76523      0.47421        -0.110933     -0.169710      0.867709
O       1.95797      5.95014     13.71956         0.106375     -0.453011     -0.892854
O      13.38929      5.86389      0.58593        -0.102515     -0.184827     -0.261691
O      13.38065      5.91824     13.67419         0.019860      0.073463     -0.880287
O       1.99554      5.67920      4.99151         0.015075      0.265959     -0.291853
O      13.43198      5.95202      4.72573        -0.061746     -0.526908      0.562011
O       1.77737      5.79773      9.28430         0.237051     -0.179407     -0.234713
O      13.40046      5.79725      9.34819         0.197686      0.128469     -0.500882
O       1.84617      9.76233      0.59121        -0.211953     -0.517300      0.363760
O       1.84957      9.66710     13.57657         0.516441      0.144527      0.070321
O      13.70074      9.82960      0.64726        -0.734119     -0.152572     -0.665677
O      13.29566      9.81257     13.54443         0.415655     -0.300310      0.640867
O       1.94208      9.55468      4.83464        -0.253695      0.040162     -0.435049
O      13.39496      9.77491      4.88935        -0.034255     -0.088039     -0.669568
O       1.82761      9.36112      9.25590         0.095751      0.666824      0.290064
O      13.45536      9.76704      9.23495        -0.387215      0.207978      0.004125
O       5.88328      1.72807      0.55813        -0.570223      0.959934      0.349113
O       5.60181      1.95607     13.52449         0.802248      0.237099      0.054449
O       5.79046     13.61576      0.60993        -0.221909     -0.147287      0.407615
O       5.66231     13.45618     13.52344         0.188991     -0.028074      0.341427
O       5.58344      2.01122      4.93609         0.500388     -0.113961      0.104428
O       5.79487     13.38693      5.04402        -0.165654      0.665205     -0.628428
O       5.66464      2.07527      9.29967         0.200139     -0.087230     -0.873296
O       5.71598     13.51561      9.23582        -0.124773      0.136052      1.295080
O       5.75130      5.92397      0.59931        -0.196048     -0.363810      0.423920
O       5.73381      5.80504     13.52151         0.386247      0.168536      0.529017
O       5.53821      5.82557      4.93545         0.348860      0.033023     -0.729806
O       5.92007      5.88511      9.42337        -0.449568     -0.225715     -0.674052
O       5.85865      9.56330      0.54319        -0.269289      0.132956      0.688193
O       5.74870      9.67417     13.63659        -0.150662      0.130882     -0.991134
O       5.65581      9.56637      4.97589         0.383045     -0.017840     -1.551736
O       5.79829      9.66804      9.20888        -0.065735     -0.453855      0.326733
O       9.58376      1.90787      0.51744        -0.074458      0.431634      0.649966
O       9.46041      2.02834     13.60046         0.211636     -0.097280     -1.171052
O       9.68729     13.52631      0.66496        -0.352424     -0.273392     -0.644175
O       9.63950     13.50922     13.62183         0.144338      0.182239      0.953574
O       9.55658      2.16900      5.05219        -0.050665     -0.121265     -0.934284
O       9.67381     13.57428      5.02450        -0.395817      0.075906     -1.925048
O       9.65545      2.04786      9.27425        -0.030203     -0.126927     -0.501043
O       9.49076     13.85207      9.23387         0.891995     -1.146777      0.491425
O       9.48380      5.90658      0.55291         0.252548     -0.471991      0.422102
O       9.58072      5.79119     13.61509        -0.291941      0.375264     -0.828432
O       9.58412      5.97107      4.95621        -0.086202     -0.470282     -0.645507
O       9.65883      5.84688      9.38826        -0.093544      0.272365     -0.388347
O       9.58498      9.77159      0.53862        -0.036642      0.024158      0.340259
O       9.70608      9.71991     13.68654        -0.083864      0.081665     -0.326084
O       9.76950      9.55449      4.90125        -0.620706      0.382082      0.755899
O       9.55312      9.66781      9.19333         0.395326     -0.006182     -0.577278
O       3.81354      1.77169      2.49326         0.096728      0.506980      0.414304
O       3.83721      2.00021     15.80715         0.275709     -0.298888      0.554021
O       3.89936     13.41559      2.80502        -1.021110      1.000540     -0.149498
O       3.85699     13.47855     15.93156         0.021023      0.381370     -0.731845
O       0.01383      1.90892      2.72903        -0.108087     -0.508320      0.012783
O      15.32683      2.14766     15.72208         0.262855     -0.217494     -0.033288
O       0.00970     13.32207      2.60216        -0.273021      0.831057      0.481359
O       0.00582     13.36517     15.78264        -0.180608      0.018500      0.062478
O       3.80514      2.07616      7.15447         0.723525     -0.309952      0.152073
O       3.79020     13.44973      7.21933         0.564459      0.405622     -0.171197
O      15.32873      2.11033      7.07651        -0.138185      0.053528      0.292109
O      15.35859     13.60703      7.06263        -0.526161      0.775181      0.224800
O       3.83246      2.00278     11.50308        -0.287553      0.236381     -0.328096
O       3.78616     13.34380     11.49672         0.810411     -0.138933     -0.363457
O       0.02928      1.92433     11.57426        -0.350023     -0.574278      0.103616
O       0.07008     13.49417     11.47222        -1.082405     -0.125398      0.149708
O       3.78677      6.03414      2.71393        -0.433340     -1.285327     -0.229612
O       3.87283      5.78823     15.82659         0.320907     -0.255133      0.085252
O       0.05123      5.68252      2.73075        -0.116111     -0.379103     -0.149484
O      15.35499      5.94015     15.82979        -0.132233      0.017885     -0.192264
O       3.85252      5.67543      7.17758        -0.810193      0.745848     -0.078189
O      15.30978      5.93928      7.06495        -0.238023      0.008683     -0.285045
O       3.80457      5.84902     11.38620         0.179690     -0.445878      0.073552
O       0.03454      5.72971     11.59568         0.050331      0.270673     -0.553658
O       3.84701      9.65219      2.66990        -0.553490     -0.196668     -0.012113
O       3.87101      9.61056     15.77517        -1.109478     -0.157992     -0.185378
O      15.33175      9.90107      2.87693         1.106785     -0.410237     -0.255523
O      15.29738      9.81457     15.79411         0.142039      0.209020     -0.269374
O       3.77944      9.53252      7.02990        -0.359343      0.208741      0.152415
O      15.32069      9.92750      7.10852        -0.365419     -0.932845     -0.473709
O       3.84858      9.73939     11.37192        -0.124213     -0.014573      0.178269
O      15.32370      9.63601     11.45097         0.304895      0.841114     -0.241637
O       7.65974      2.03409      2.70113        -0.218517      0.010964      0.450187
O       7.61782      2.02470     15.72342        -0.256949     -0.283747     -0.044061
O       7.62477     13.50350      2.73629         1.159542      0.123814      0.365033
O       7.67549     13.43843     15.68838        -0.712284     -0.256649      0.401205
O       7.61426      2.10123      7.24041         0.016376     -0.459354     -0.657024
O       7.64589     13.43790      7.20708         0.321781      0.697125     -0.616090
O       7.69120      1.88993     11.43004         0.072310      0.325458     -0.035098
O       7.74155     13.67851     11.39416        -0.921121     -0.189034      0.161107
O       7.59496      5.82830      2.84692         0.880211      0.232613     -0.050798
O       7.63852      5.81172     15.92621         0.163657      0.421019     -0.967100
O       7.67897      5.74135      7.09682         0.039213      1.126119     -0.100858
O       7.66955      5.89458     11.40387         0.377645      0.144455      0.925895
O       7.70877      9.60359      2.76599         0.022017      0.073429     -0.196989
O       7.67097      9.63545     15.66054         0.592511      0.620693      0.564182
O       7.65902      9.73583      7.01453         0.744940     -0.742907     -0.118309
O       7.73550      9.69040     11.52380        -0.809839     -0.586159     -0.726743
O      11.59467      2.00931      2.66935        -1.647851      0.536025     -0.145921
O      11.41839      1.96937     15.67588         0.681650      0.358012      0.419777
O      11.44144     13.60879      2.80908         0.711362     -0.263954     -0.182584
O      11.55352     13.61259     15.73809        -0.038718      0.471041      0.451358
O      11.52315      2.06774      7.15772         0.289544     -0.066348      0.109115
O      11.52068     13.60280      7.01708        -0.223386      0.223285      0.688085
O      11.51587      2.23651     11.40443         0.822182     -0.306683      0.092823
O      11.62089     13.48848     11.51405        -0.851395      0.001921     -0.557715
O      11.43690      5.84518      2.70201         1.245943     -0.551040     -0.049404
O      11.48315      5.82837     15.79481        -0.504357      0.035931      0.234545
O      11.51407      5.98627      7.04887         0.706533     -0.479625     -0.000675
O      11.50699      5.85076     11.54872         0.271271      0.041131     -0.197396
O      11.55192      9.87679      2.65789         0.043727     -0.864630     -0.098999
O      11.55368      9.79306     15.89087         0.041677     -0.776984     -0.031634
O      11.52758      9.80823      7.07761        -0.288564     -0.496476      0.213980
O      11.53502      9.80349     11.41094        -0.233792     -0.206583     -0.250661
O       2.06717      3.78966      2.71080        -0.242631      0.994920     -0.156940
O       1.97988      3.84257     15.72426        -0.206759      0.285663      0.517654
O       1.85084     15.34188      2.75194         0.304316      0.068621      0.039365
O       1.91495     15.33187     15.82199        -0.157823      0.232760      0.174094
O      13.49170      3.90993      2.69807        -0.639469      0.821395     -0.077306
O      13.39554      3.95178     15.68022        -0.263406      0.323290      0.519488
O      13.35442     15.53585      2.73950         0.880630     -0.795783     -0.470611
O      13.46204      0.21971     15.85554        -0.027791     -1.052579     -0.298182
O       1.92411      3.85098      7.16011        -0.303718     -0.251754      0.150630
O       1.99033      0.05725      7.08414        -0.394798      0.412201      0.763447
O      13.47457      4.04939      7.08893        -0.397220     -0.161997     -0.273409
O      13.47676     15.52166      7.13675        -0.140376      1.042622      0.265857
O       1.90981      3.86372     11.52945        -0.070782      0.322369     -0.372900
O       2.04440     15.28114     11.49691        -0.632901      0.853035     -0.288103
O      13.54660      4.04285     11.59377        -0.426752     -0.646667     -0.258556
O      13.42848     15.48542     11.44236        -0.121387      0.375111     -0.187639
O       1.84156      7.72113      2.66876        -0.223002     -0.168480     -0.042788
O       1.83021      7.73463     15.75083         0.537462      0.432757      0.558623
O      13.52705      7.78035      2.66222        -0.355924      0.549114      0.111099
O      13.41164      7.76650     15.75394        -0.246777      1.726912      0.351490
O       1.78243      7.69774      7.19434         0.652616     -0.565467     -1.059935
O      13.45196      7.86424      6.93083        -0.252709     -0.827171      0.177675
O       1.95909      7.70156     11.44989         0.005973     -0.015305      0.280374
O      13.52490      7.79582     11.45355        -1.123403      0.348162     -0.048602
O       2.01073     11.63140      2.84206        -0.481725     -0.857039     -0.258272
O       1.95432     11.47516     15.87618        -0.108555      0.354704     -0.424040
O      13.48910     11.67125      2.77587        -0.679488      1.053727     -0.162005
O      13.34320     11.68708     15.67526         0.384587     -0.372537      0.376013
O       1.87325     11.49858      7.09822         0.475024     -0.266492     -0.213931
O      13.45231     11.80782      7.12549        -0.666831     -1.236125     -0.150174
O       1.75104     11.52667     11.26530         0.283564     -1.505196      0.771531
O      13.57746     11.64456     11.52542        -0.035042      0.320193     -0.623463
O       5.68603      3.93528      2.78094        -0.257454     -1.132191     -0.322421
O       5.82190      3.86925     15.83386        -0.666995      0.405822     -0.269454
O       5.74280     15.40935      2.92403         0.214947      0.753158     -0.417083
O       5.76007     15.43697     15.67227        -0.310645     -0.448079     -0.107931
O       5.87517      3.97120      7.00314        -0.846905     -1.182473      0.342822
O       5.79651     15.37512      7.15000        -0.659873      1.780263     -0.427618
O       5.77747      3.89531     11.55003         0.176323      0.296174     -0.437029
O       5.58416      0.11499     11.40359         0.996921     -0.900400     -0.291398
O       5.67359      7.73695      2.74701         0.759164      0.309469      0.379723
O       5.69153      7.69375     15.73216         0.347106      0.244186     -0.009187
O       5.71064      7.72440      7.08389         0.522669     -0.552279      0.215300
O       5.68462      7.79637     11.52864         0.559333      0.459149     -0.110731
O       5.72960     11.60761      2.77203         0.444975     -0.797639     -0.081085
O       5.60543     11.60113     15.71582         0.732398     -0.133778     -0.002674
O       5.73208     11.49299      7.04473        -0.306775      0.806373      0.564007
O       5.88738     11.66624     11.25929         0.038123     -1.488042      0.749727
O       9.58260      3.92813      2.66928        -0.106827     -0.694994      0.192959
O       9.43473      3.92903     15.76199         0.811017      0.064008      0.137414
O       9.54868     15.48619      2.85152        -0.270410      0.308189     -0.404201
O       9.43528     15.42620     15.82529         0.892694     -0.004077     -0.352934
O       9.59371      3.97584      7.14139         0.380460      0.613896      0.180897
O       9.53478      0.15261      7.16029         0.195353      0.241695     -0.321633
O       9.54184      3.91489     11.34807        -0.538277      0.937937      0.759467
O       9.74278     15.49033     11.45898         0.099190     -0.368456      0.314350
O       9.80250      7.73332      2.66401        -1.158565      0.900414      0.000180
O       9.61636      7.76388     15.89022         0.207494      0.357416     -0.547062
O       9.63053      7.77099      7.04053        -0.284179      0.711942      0.554932
O       9.60500      7.89427     11.41640         0.253237     -1.187916      0.365644
O       9.59991     11.57008      2.92388        -0.246582      0.760212     -0.844288
O       9.76313     11.66975     15.82351        -0.809221     -1.076472      0.430546
O       9.60566     11.62606      7.07905         0.172781     -0.055234     -0.105597
O       9.57955     11.64638     11.41998         0.052726     -0.171504     -0.298127
