  # total energy = -7881.47455917 
CRSYTAL
PRIMVEC
    15.3600000000000000    0.2300000000000000    0.0000000000000000
     0.0000000000000000   15.3600000000000000    0.0000000000000000
     0.0000000000000000    0.0000000000000000    17.440000000000000
PRESSURE
1.49469 1.743 -0.794404 -0.00593 0.350581 -1.64734
PRIMCOORD
320 1
Pb       3.82834      3.95001      4.26852         0.054140     -0.277813      0.397536
Pb       3.81733      3.75335      0.09107        -0.359794     -0.127160     -0.406879
Pb       3.93805     15.39310      4.30261        -0.137035     -0.638324      0.300593
Pb       3.90860     15.36961      0.12268        -0.110940      0.315949     -0.644251
Pb       0.03578      3.92115      4.30582        -0.329915      0.149990      1.008139
Pb       0.03168      3.75110      0.03868         0.128434      0.114319      0.527659
Pb      15.34149     15.49507      4.38741        -0.568416     -0.504447      0.611934
Pb      15.33071      0.25561     17.39896         0.243652     -0.213098     -0.033921
Pb       3.80026      3.70169      8.53417         0.324724      0.435288      0.062568
Pb       3.86267      0.07731      8.54145         0.056618     -0.677056      0.723635
Pb      15.30420      3.91958      8.54069         0.110742      0.116671      0.712182
Pb       0.00864     15.22874      8.63864        -0.071679     -0.284640      0.257627
Pb       3.76025      3.71500     13.06871        -0.091270      0.974675     -0.020383
Pb       3.76838     15.38715     13.06453         0.138682     -0.139852      0.475021
Pb      15.29811      4.01281     12.95808         0.685461      0.028219      0.229008
Pb      15.33096      0.23766     13.01160        -0.106966     -0.088515      0.553501
Pb       3.79220      7.78318      4.38760        -0.418824     -0.076908     -0.099266
Pb       3.78574      7.66356     17.33748         0.030239     -0.073898      0.893996
Pb      15.31873      8.04894      4.43092         0.458433      0.044609     -0.201268
Pb      15.26780      7.98891     17.39748         0.392430      0.198670      0.736440
Pb       3.86694      7.66554      8.73849         0.047896     -0.035486      0.127885
Pb       0.06114      7.54408      8.79225        -0.365070      0.773051      0.399313
Pb       3.64833      7.60857     13.08727         0.696125     -0.229296      0.245866
Pb      15.34635      7.86780     13.05696         0.187855      0.624003      0.061547
Pb       3.74942     11.53606      4.22693        -0.432044      0.471118      0.618145
Pb       3.71966     11.57513     17.34989         0.266341      0.010419      0.719533
Pb      15.27820     11.74367      4.34967         0.055410      0.000214      0.079789
Pb      15.22801     11.77287      0.00448         0.052506     -0.291817     -0.182474
Pb       3.98526     11.50270      8.68461        -0.573292      0.720405      0.439986
Pb       0.10620     11.44516      8.75140        -0.172556      0.638911     -0.148064
Pb       3.71679     11.49768     13.03332         0.372731      0.294034      0.188484
Pb      15.34313     11.70283     13.05813        -0.066873      0.025588     -0.005421
Pb       7.69385      4.00375      4.25370        -0.089361     -0.276988      0.506442
Pb       7.69843      3.88136     17.36222         0.291420     -0.113400      0.205690
Pb       7.72949     15.39107      4.27119         0.372928     -0.135220     -0.059864
Pb       7.72304      0.19076     17.36882        -0.128572     -0.494690      0.122315
Pb       7.50865      3.89024      8.59507         0.408517     -0.047600     -0.070164
Pb       7.57471     15.37403      8.57674         0.684804      0.135232      0.618564
Pb       7.55450      3.93346     13.00772         0.340036      0.178574      0.245246
Pb       7.63713      0.17208     13.04117        -0.221563      0.088481      0.130554
Pb       7.72468      7.76519      4.30404        -0.049167     -0.095061      0.463029
Pb       7.53204      7.81713     17.28427         0.472716     -0.540222      0.743459
Pb       7.65473      7.71451      8.77345         0.026640     -0.046201     -0.704990
Pb       7.68217      7.92800     13.09485         0.175504     -0.791040     -0.036825
Pb       7.57392     11.54856      4.24886         0.765929      0.249480      1.027691
Pb       7.64599     11.54906     17.24929         0.029063      0.509619      0.901102
Pb       7.68840     11.51070      8.73672        -0.048245      0.448634      0.078303
Pb       7.66400     11.81930     13.13394         0.323118     -0.757329     -0.399108
Pb      11.42551      4.03026      4.44036         0.479602      0.011718     -0.159072
Pb      11.64402      4.14004      0.04094        -0.661329     -0.477635     -0.140545
Pb      11.60233     15.48639      4.31806        -0.459071     -0.134124     -0.089383
Pb      11.54430      0.28149      0.00233        -0.232266     -0.140627     -0.131274
Pb      11.48301      3.93341      8.64034         0.279160      0.010925      0.071870
Pb      11.39195      0.17593      8.63612         0.386558     -0.028754      0.671679
Pb      11.55185      4.18089     13.08496        -0.753007     -0.218504     -0.747064
Pb      11.47135      0.24790     12.90469         0.320359      0.184317      0.545216
Pb      11.44608      7.94415      4.39664         0.077189     -0.759634      0.322726
Pb      11.46474      7.90722     17.32605         0.209217     -0.093402      0.298355
Pb      11.55829      7.85125      8.73418        -0.252266     -0.737841      0.333999
Pb      11.59425      7.96090     12.97874        -0.879491     -0.628363      0.310626
Pb      11.49715     11.42214      4.35821         0.197558      1.201757      0.094812
Pb      11.42529     11.84755     17.18298         0.492363     -1.271139      1.707611
Pb      11.56590     11.64314      8.65706        -0.037170      0.494826      0.901479
Pb      11.45463     11.83549     12.93673        -0.299916     -0.214080      0.551564
Ti       1.84051      1.81490      2.49419         1.216246      1.083328     -1.460038
Ti       1.85249      1.98883     15.41453         0.627080     -0.993131     -0.543533
Ti       1.84449     13.42355      2.26647         0.446523     -0.936614      0.549192
Ti       1.96079     13.47960     15.41576        -1.035170      0.784726     -0.208077
Ti      13.53372      2.19057      2.42099        -1.036174     -0.880103     -0.098221
Ti      13.46246      2.17314     15.38106        -0.849824     -0.712632      0.491231
Ti      13.39710     13.60174      2.27955         0.421510     -0.723557     -0.435083
Ti      13.46546     13.73249     15.43759         0.049757     -1.275816     -0.600527
Ti       1.90430      1.81518      6.61489         0.384351      0.587526     -0.455982
Ti       1.95490     13.41632      6.71301        -0.200592     -1.562277     -1.050592
Ti      13.54868      2.01440      6.60873        -1.242578      0.927137     -0.358450
Ti      13.38853     13.59112      6.65811         1.023201     -0.241899     -0.142724
Ti       1.88901      1.87785     10.98141        -0.516246      0.526491     -0.849692
Ti       1.85845     13.50847     11.12135         0.574372     -0.607939     -2.249072
Ti      13.46624      2.10379     10.94804        -0.650806     -0.105484     -0.262169
Ti      13.39517     13.64180     11.04207         0.277204     -0.162552     -1.799134
Ti       1.83201      5.76038      2.35113         0.098563      0.599785     -1.427393
Ti       1.85287      5.78119     15.53566         1.144492     -0.138810     -0.729691
Ti      13.40172      5.99146      2.34628         0.457368      0.295942      0.279388
Ti      13.50896      5.95617     15.49271        -0.884014      0.599378     -0.020843
Ti       1.86643      5.82297      6.77408         0.839963     -0.560642     -0.356256
Ti      13.51519      5.99839      6.76253        -2.077039     -1.249737      0.344177
Ti       1.89062      5.77306     11.03230         0.999820     -0.378116      0.430660
Ti      13.38890      5.95437     11.08971        -0.366652      0.490765     -1.485060
Ti       1.86016      9.57032      2.28351        -0.606998      0.690299      0.064046
Ti       1.95549      9.61077     15.41441        -1.277720     -0.522638     -0.533119
Ti      13.40115      9.67132      2.31034         1.055931      2.382761     -0.825597
Ti      13.34784      9.82744     15.38590         0.894942     -0.261308      0.464215
Ti       1.95143      9.63325      6.83133         0.012958      0.404115     -2.290355
Ti      13.45587      9.76691      6.80649         0.265557      0.536849     -0.760195
Ti       1.93889      9.66369     11.04654        -1.160655     -0.371116     -0.297009
Ti      13.36178      9.82881     11.07440         1.339465      0.056574     -0.190035
Ti       5.78621      1.95629      2.39747         0.907617      0.092388      0.343712
Ti       5.72517      1.95522     15.35441        -0.702996     -0.988241     -0.344096
Ti       5.79087     13.40356      2.29333        -0.030420      1.196146      0.818242
Ti       5.77447     13.43305     15.41860        -0.247005      1.507560      0.462667
Ti       5.88090      1.92590      6.56910        -0.090056      0.337141     -0.687702
Ti       5.81449     13.47879      6.65352         0.235170     -0.642771     -0.840151
Ti       5.62317      1.92053     11.05938         0.879961      0.380125     -1.497501
Ti       5.71987     13.47462     11.07775        -0.354758      0.106427      0.371980
Ti       5.70810      5.84148      2.32812         0.251813     -0.195996      1.839141
Ti       5.67976      5.71312     15.41363         0.336695      0.419588     -1.870735
Ti       5.67136      5.85034      6.66236         1.003149     -0.522549      0.520646
Ti       5.73379      5.78759     11.06360        -1.312448      0.405933     -0.744908
Ti       5.66365      9.59960      2.37715         0.808362      0.458159      0.596786
Ti       5.69704      9.56673     15.34677        -1.125371      0.320206     -1.273500
Ti       5.77361      9.63998      6.70795         0.786305      0.374101     -1.289876
Ti       5.69137      9.63669     11.12403         0.508497      0.066229      0.363527
Ti       9.67447      2.05937      2.32225        -0.629492     -0.348465     -0.222755
Ti       9.61688      2.12082     15.31515         0.249491     -0.172658      0.001523
Ti       9.65858     13.46374      2.23691        -0.579343      0.547146     -0.140140
Ti       9.61867     13.65158     15.41891        -0.512342      0.033486     -0.548006
Ti       9.67664      1.98223      6.62005        -0.437770      0.421571     -0.347777
Ti       9.64378     13.53274      6.72823        -0.744022     -0.167039     -0.816262
Ti       9.53756      2.08995     11.02677         0.574781      0.382864      0.301489
Ti       9.50047     13.66222     10.99634         0.335790     -1.222782     -0.715287
Ti       9.66135      5.86656      2.31299        -0.458468      0.140412      0.828019
Ti       9.57899      5.89397     15.43949         0.263137      0.285211     -1.887000
Ti       9.60965      5.89888      6.73646        -0.327538     -0.276482     -0.241376
Ti       9.41748      5.84536     10.91551         2.098055      0.646201      1.289715
Ti       9.56948      9.67226      2.28405         0.014748      0.616452     -1.097098
Ti       9.52976      9.69630     15.37474         1.091201      0.052483     -0.754470
Ti       9.64015      9.73431      6.82541        -1.061866     -0.479958     -0.121727
Ti       9.55212      9.66572     11.02533        -0.324503      0.850087      0.664364
O       1.93227      1.99881      0.63197        -0.483164     -0.537081      1.595269
O       1.84141      1.98795     13.60803         0.113007      0.221095      1.032121
O       1.90119     13.40649      0.50243        -0.231054      0.463764     -0.064803
O       1.85468     13.50762     13.63695         0.420279     -0.112627      0.289185
O      13.73941      2.00638      0.64160        -0.763555      0.374097      0.646169
O      13.37943      2.20283     13.64375         0.213172      0.149399     -0.194448
O      13.55301     13.57159      0.41205        -0.455002      0.230614      1.497076
O      13.35089     13.69105     13.67868         0.031643      0.032601     -0.320374
O       1.87622      1.77177      4.85469         0.225670      0.248536      0.255426
O       2.02473     13.25428      4.92485        -0.050619      0.506528      0.410421
O      13.48518      2.18708      4.83493        -0.155088     -0.307699      0.310569
O      13.41027     13.52541      4.89370        -0.301442      0.089710      0.438257
O       1.85205      1.61395      9.18458         0.210685      0.877903      0.591724
O       1.85491     13.47612      9.24446        -0.125444      0.256048      2.102936
O      13.48662      1.93947      9.18302         0.197894      0.438311      0.475998
O      13.46002     13.51517      9.21157         0.115683      0.599586      1.664757
O       1.84118      5.83494      0.54435         0.505933     -0.451254      1.147815
O       1.91168      5.79872     13.76076        -0.205146     -0.175411     -0.198767
O      13.33203      6.14367      0.59906         0.091038     -0.739396     -0.150209
O      13.45903      5.95951     13.71854         0.044022     -0.056703     -0.324086
O       1.87645      5.91834      5.05253         0.150156     -0.277059     -1.141244
O      13.44422      5.85031      5.05992        -0.166244      0.420864     -1.069797
O       1.91681      5.86575      9.26439        -0.078472     -0.313795      0.083949
O      13.55659      6.05048      9.33470         0.021942     -0.234232      0.070250
O       1.82204      9.53907      0.51637         0.222364      0.295255      0.063397
O       1.96603      9.54892     13.59827         0.007452      0.377903      1.128286
O      13.69020      9.82961      0.52580        -1.206896     -0.277691      0.645603
O      13.43365      9.64483     13.64698        -0.185882      0.372740     -0.549347
O       1.92318      9.59923      4.92085         0.116167      0.081893      1.917282
O      13.38592      9.88516      5.00891         0.285899     -0.760324      1.123767
O       1.84792      9.68200      9.27712         0.474825     -0.368510     -0.469197
O      13.42895      9.84151      9.31584        -0.250950     -0.037716     -0.258672
O       5.84107      1.96489      0.61060        -0.384297      0.089237      0.151683
O       5.54959      1.92514     13.57154         0.574904      0.270716      0.405363
O       5.86787     13.62581      0.57651        -0.413146     -0.453724     -0.664575
O       5.82903     13.45875     13.67565        -0.329529      0.223631     -0.612095
O       5.93906      1.85665      4.78219        -0.368242      0.200209      0.537778
O       5.93626     13.47956      4.86274        -0.668608      0.053086      0.662565
O       5.71222      1.96393      9.22334        -0.229140     -0.041070      1.137789
O       5.76896     13.41455      9.33463         0.145000      0.223663     -0.069911
O       5.69246      5.76153      0.64427         0.197431      0.019469     -1.995018
O       5.63448      5.80152     13.63436         0.493477     -0.354527      0.457984
O       5.68436      5.88943      4.91856        -0.136127      0.010334     -0.132230
O       5.67837      5.70630      9.21291         0.197200      0.142463      1.402125
O       5.81677      9.62033      0.66233         0.013875     -0.059814     -0.896310
O       5.64657      9.56470     13.53863         0.063756      0.170680      1.472388
O       5.92332      9.61891      4.87803        -0.673680      0.013482      1.323471
O       5.67524      9.88593      9.37870         0.446772     -0.911513     -0.243014
O       9.46926      2.15593      0.52376         0.554210     -0.426729      0.491554
O       9.65386      2.10610     13.51787        -0.040705     -0.104873      1.014930
O       9.51465     13.60973      0.41010         0.443445     -0.360590      1.796988
O       9.67094     13.57744     13.60678        -0.323383      0.403599      0.721050
O       9.73538      1.99433      4.82414        -0.117786      0.323101      1.071799
O       9.71321     13.53665      4.97331        -0.150040      0.039935     -0.171545
O       9.61471      2.00981      9.28356        -0.124381      0.162168      0.199418
O       9.45947     13.58305      9.22707         0.244634      0.227184      0.789111
O       9.76324      5.76140      0.56866        -0.337452      0.393580     -0.012081
O       9.63070      6.07306     13.64458         0.156982     -0.741836      1.246285
O       9.62357      5.97046      4.92713         0.309169     -0.495852      0.535173
O       9.47734      5.93554      9.15496        -0.316922     -0.421338      0.479401
O       9.48595      9.68188      0.48650        -0.113571     -0.001211      0.610943
O       9.51995      9.59203     13.58217        -0.037477      0.180818      1.071853
O       9.65514      9.76379      5.06424        -0.002369     -0.330559     -0.418736
O       9.73268      9.68158      9.26599        -0.711789     -0.080122      0.225254
O       3.85629      1.96926      2.79425        -0.157590     -0.269547     -0.195660
O       3.74444      1.90861     15.89838         0.810814      0.325435     -0.097044
O       3.80421     13.47972      2.68987         0.032090      0.170716     -0.247578
O       3.84691     13.65204     16.02210        -0.291863     -0.771355     -0.962972
O       0.04105      2.05107      2.90497        -0.343729     -0.931893     -0.517112
O      15.29800      2.19867     15.84718         0.630039     -0.156141     -0.208038
O      15.25303     13.55404      2.73902         1.001931     -0.023612     -0.244549
O       0.00663     13.28617     15.76758         0.131896      0.423645     -0.123049
O       3.94192      1.84061      6.95392        -1.306392      0.074762     -0.062295
O       3.95992     13.42056      7.16847        -0.458059      0.556976     -0.586009
O       0.03320      1.88581      7.03249         0.284530     -0.361068     -0.025233
O       0.07385     13.16212      6.89478        -0.880106      0.632625      0.598988
O       3.73907      1.91221     11.43668         0.326460      0.488702     -0.141811
O       3.75923     13.54189     11.50605         0.557233     -0.640502     -0.100893
O      15.35540      2.09768     11.46596        -0.408743      0.171010     -0.224037
O      15.30945     13.63495     11.49350         0.300931      0.396354      0.027336
O       3.74363      5.72603      2.78545         0.455946      0.596367     -0.222320
O       3.88091      5.81911     15.81899        -0.922080     -0.700214      0.623590
O      15.31745      5.98869      2.72726         0.386782     -0.192975      0.282072
O       0.01840      5.87219     15.92758        -0.733745     -0.655404     -0.463075
O       3.80164      5.72329      7.15768         0.235261      0.084126     -0.124494
O      15.32843      6.07844      7.05947         1.252476     -0.654681      0.738110
O       3.85707      5.75083     11.62899        -1.039403     -0.403180     -0.969068
O       0.08293      5.82098     11.56685        -0.629717     -0.078856     -0.448530
O       3.79163      9.66712      2.76122         0.069050     -0.365549     -0.374730
O       3.80694      9.65021     16.01903         0.870191     -0.394483     -1.019782
O      15.29307      9.88432      2.81241         0.762376     -0.241299     -0.057943
O      15.34008      9.68915     15.77276         0.751171      0.936651     -0.529698
O       3.90119      9.63130      7.14076        -0.017105     -0.235173     -0.170146
O       0.05039      9.55676      7.17336        -0.661015      0.219724     -0.284700
O       3.76282      9.75007     11.43571         1.349233      0.164639      0.182117
O       0.01920      9.59986     11.43209        -0.710371      0.153394      0.369107
O       7.77426      2.13964      2.68574        -1.206391     -0.972482      0.218817
O       7.69883      2.00335     15.70409        -0.368047      0.498989     -0.099893
O       7.72022     13.54053      2.67202         0.641952     -0.226403     -0.052443
O       7.64372     13.55652     15.86538         0.448751     -0.504224     -0.581470
O       7.73390      1.95249      7.09655        -0.203693      0.157776     -0.357259
O       7.75668     13.43051      7.06244        -1.342977      0.309493      0.282639
O       7.58838      1.96130     11.42679         0.494875      0.084357      0.125623
O       7.63882     13.77724     11.48592        -0.105757     -0.471167      0.004505
O       7.71748      5.85103      2.76379        -0.184489      0.721502     -0.583757
O       7.69057      5.84201     15.75024        -0.226519     -0.139682      0.432935
O       7.62051      5.79694      7.06584         0.123696      0.075959      0.130330
O       7.63620      5.89249     11.54280        -0.629771     -0.110728     -0.555439
O       7.75790      9.65155      2.84384        -0.743165     -0.186091     -0.711325
O       7.56405      9.62427     15.79111         0.480441      0.315598     -0.434975
O       7.72190      9.61841      7.26547        -0.586134      0.065167     -0.202876
O       7.62189      9.61968     11.48881         0.191190     -0.152371     -0.474176
O      11.58090      2.07949      2.64135         0.502168      0.422511     -0.028953
O      11.45268      2.00030     15.87302         1.035003      0.472258     -0.302843
O      11.54470     13.56697      2.62789        -0.613306      0.311897     -0.219526
O      11.48505     13.67730     15.93387         0.197015      0.530038     -0.805011
O      11.56137      1.97513      7.07926         0.089002     -0.091201     -0.261778
O      11.49602     13.70846      7.12322         1.155922     -0.449397      0.068833
O      11.57190      2.15503     11.39803        -0.188017      0.111248     -0.052071
O      11.49125     13.55254     11.26459        -0.314566      0.203707      0.521156
O      11.56920      6.02749      2.83618        -0.599336     -0.719650     -0.139042
O      11.61560      5.84291     15.88230        -0.526938      0.414884     -0.148266
O      11.49938      5.84811      7.27466         0.595640      0.266510     -0.595305
O      11.42386      5.94240     11.32357         1.125868     -0.230640      0.297269
O      11.54829      9.63339      2.73778        -0.531764      0.327869     -0.145992
O      11.42946      9.80258     15.76569         0.149693     -0.717963     -0.126805
O      11.47670      9.62579      7.19311         1.713076      0.486989     -0.194675
O      11.43908      9.89608     11.48180         0.635929     -0.544295     -0.158305
O       1.89923      3.82791      2.84323         0.156533      0.396988     -0.300544
O       1.84902      3.87549     15.97963         0.354600     -0.180640     -0.392838
O       1.69817     15.29175      2.89443         1.105617      0.454591     -1.283332
O       1.78549      0.09815     15.73946         0.089348     -0.899307      0.217717
O      13.48446      4.07150      2.78410        -0.379756      0.184461     -0.547005
O      13.48552      3.97930     15.96283        -0.148925      1.063527     -0.465729
O      13.52967     15.50436      2.82921        -0.242986      0.293420     -0.626890
O      13.48480     15.55568     15.77018        -0.016637      1.067769      0.395007
O       1.85003      3.75240      7.02954         0.380879      0.258721      0.089787
O       1.81945     15.25315      7.05601         0.576225      1.200966     -0.241281
O      13.47726      3.92497      7.12687        -0.099565      0.714363      0.086721
O      13.64234     15.50775      6.88670        -0.451122     -0.421377      0.277966
O       1.85152      3.78611     11.38883         0.109700      0.789868     -0.223275
O       1.90807      0.08291     11.56434        -0.463519     -1.288614     -0.209374
O      13.53111      4.09624     11.30200        -0.059746     -0.668871      0.523521
O      13.44826      0.22672     11.43480        -0.146465     -0.627031     -0.095005
O       1.79047      7.75223      2.69107         0.561653     -1.200132      0.474048
O       2.11689      7.66473     15.78492        -0.907939      0.821730     -0.138228
O      13.56581      7.90933      2.84076        -0.519693     -1.122628     -0.019034
O      13.42590      7.89873     15.90744        -0.647602     -0.426665     -0.540335
O       2.00164      7.70050      7.09509        -0.099617      0.168568      0.609793
O      13.49803      7.85111      7.18123        -0.456679      0.858220     -0.146635
O       2.01529      7.76537     11.38734        -0.335275     -1.341643      0.035496
O      13.46078      7.91305     11.38266        -0.325688      0.048641      0.535591
O       1.92130     11.54849      2.59572        -0.071238     -0.227313      0.258959
O       2.03984     11.54346     15.68408        -0.052280     -0.136170      0.115543
O      13.35889     11.62559      2.84911         0.003371      0.555490     -0.803311
O      13.25927     11.70451     15.71389         0.836647      0.027224      0.049354
O       2.06374     11.53022      7.23847        -0.307759     -0.995441     -0.328079
O      13.36405     11.71831      7.15014        -0.122394     -1.197873     -0.247631
O       1.90497     11.56688     11.48142        -0.328625      0.642831      0.222714
O      13.44012     11.73565     11.57916         0.019500     -0.044370     -0.340740
O       5.82765      3.94241      2.79424        -0.734766     -0.477368     -0.172652
O       5.65764      3.83931     15.70282         0.443831     -0.429558      0.610531
O       5.70400     15.34553      2.77590         0.637036      0.950605     -0.430205
O       5.77708     15.40837     15.66258        -0.048414      0.782995      0.679430
O       5.76453      3.81267      6.95588        -0.250730      0.442477      0.222550
O       5.81872     15.37367      6.99629         0.107201      0.071996      0.062022
O       5.74557      3.86041     11.47367        -0.149141      0.036743     -0.087513
O       5.57508     15.44189     11.47955         0.646121     -0.420432     -0.029947
O       5.64614      7.74058      2.75760         0.455589     -0.346440     -0.052444
O       5.73147      7.66358     15.71070         0.016393      1.342812      0.555604
O       5.76305      7.75589      7.09887        -0.218136     -0.454510      0.284347
O       5.57100      7.71082     11.28372         0.479654      0.119896      0.051755
O       5.76750     11.56066      2.77250        -0.003649     -0.367489     -0.552033
O       5.61793     11.56313     15.77847         0.493834     -0.629591     -0.024330
O       5.80575     11.55064      7.10853         0.244271     -0.260448     -0.201059
O       5.90432     11.60450     11.59465        -0.819112      0.582207     -0.365359
O       9.54637      3.97471      2.78812         1.282004      0.773510     -0.114845
O       9.66301      4.01770     15.80987        -0.143976     -0.961238     -0.248345
O       9.73903      0.18200      2.81046        -0.586165     -1.077592     -0.896095
O       9.59526     15.48130     15.77604        -0.194818      0.896912     -0.124697
O       9.66636      3.87915      7.15503        -0.293845      0.081601     -0.657613
O       9.56361     15.43966      7.10397        -0.029664      0.821967     -0.027783
O       9.57933      4.01877     11.54364        -0.468971     -0.210947     -0.687061
O       9.67687      0.19251     11.38907        -0.292779     -0.243623      0.112661
O       9.74133      7.84981      2.78900        -0.957308     -0.951373     -0.355893
O       9.63153      7.79298     15.82234        -0.342699      0.409475      0.216767
O       9.62285      7.72665      7.08845        -0.266232      0.628118      0.356864
O       9.59573      7.79845     11.40210        -0.235178     -0.012047     -0.298218
O       9.68548     11.57325      2.78005        -0.288571      0.683407     -0.846713
O       9.61109     11.62892     15.74925        -0.836548      0.121666     -0.317320
O       9.64138     11.61762      7.24371         0.246423     -0.170697     -0.459987
O       9.39076     11.67034     11.51105         0.418182      0.469799     -0.514364
