  # total energy = -7880.40879572 
CRSYTAL
PRIMVEC
    15.3600000000000000    0.2300000000000000    0.0000000000000000
     0.0000000000000000   15.3600000000000000    0.0000000000000000
     0.0000000000000000    0.0000000000000000    17.440000000000000
PRESSURE
-0.394233 -0.565658 -3.88642 -0.064808 0.1485 -1.59832
PRIMCOORD
320 1
Pb       3.80873      3.84570      4.26871        -0.085518     -0.350384     -0.049008
Pb       3.74950      3.95492     17.35456         0.132144     -0.224144     -0.349790
Pb       3.69910      0.05895      4.47705         0.124635      0.164947     -0.682313
Pb       3.69950     15.35817     17.34821         0.445344      0.010911     -0.254346
Pb       0.08431      3.77091      4.30095        -0.229288     -0.110051     -0.197576
Pb      15.35634      3.97009     17.30545        -0.137784      0.871504     -0.322165
Pb      15.27625      0.35634      4.39032         0.668253     -0.427815     -0.269801
Pb      15.28731     15.51018     17.32084         0.295529     -0.237982     -0.261071
Pb       3.82996      3.98703      8.67132         0.066260      0.054298      0.359946
Pb       3.69356      0.15519      8.83772         0.298741     -0.151737     -0.530731
Pb       0.05514      4.14279      8.86732         0.044874     -0.454766     -0.451962
Pb      15.35955     15.57627      8.75570        -0.064208      0.171458     -0.294376
Pb       4.03402      4.00145     13.07154        -0.572238     -0.319274     -0.275218
Pb       3.82733      0.18918     13.10671        -0.025457     -0.119810     -0.657070
Pb      15.32438      4.10647     13.03433        -0.412613     -0.307874     -0.067323
Pb      15.29646      0.27395     13.09539        -0.070807     -0.049641     -0.572081
Pb       3.89275      7.72767      4.35105        -0.127002     -0.023273     -0.778907
Pb       3.79569      7.78066      0.00768         0.278412     -0.453538     -0.020491
Pb      15.21295      7.70285      4.29206         0.212192      0.571067     -0.678776
Pb       0.01766      7.61369     17.34443        -0.375769     -0.410323      0.241511
Pb       3.71421      7.77197      8.55182         0.689782     -0.343364      0.131883
Pb      15.16824      8.07703      8.63244         0.669851     -0.454507      0.067802
Pb       3.92083      7.82250     12.93690        -0.019585     -0.915912      0.142522
Pb      15.34350      7.94655     13.06473        -0.031227     -0.194640     -0.675060
Pb       3.88473     11.52028      4.29035        -0.153187      0.319959     -0.423644
Pb       3.85831     11.54891     17.41930         0.069035      0.423532     -0.002076
Pb       0.02534     11.49256      4.28301        -0.011848      0.021468     -0.754524
Pb       0.15873     11.47120      0.02949        -0.325052     -0.035766     -0.205811
Pb       3.63170     11.54301      8.63848         0.786195      0.120405     -0.176720
Pb      15.20333     11.77521      8.52784         0.535524     -0.004880      0.492843
Pb       3.90798     11.49109     12.98834        -0.268405      0.651813     -0.040326
Pb      15.33245     11.64365     13.04566        -0.046308      0.417047     -0.906258
Pb       7.54554      3.75613      4.35139         0.263815      0.188478     -0.028344
Pb       7.52502      3.98162      0.02041         0.873161      0.143495     -0.306750
Pb       7.44988      0.13843      4.41758         0.372044      0.201239     -0.442284
Pb       7.66000      0.14855     17.43143         0.035215     -0.459163     -0.264826
Pb       7.68571      3.98261      8.64061        -0.040807      0.111209      0.138459
Pb       7.73070      0.16799      8.78247        -0.250056     -0.391094     -0.623024
Pb       7.72204      3.85969     13.02195         0.054592      0.079417      0.034595
Pb       7.65602     15.25324     13.17870        -0.000592      0.454998     -0.541459
Pb       7.64194      7.69143      4.42324         0.115979      0.027765     -0.921586
Pb       7.75506      7.76131      0.22114        -0.058095     -0.206101     -0.962527
Pb       7.73899      7.94670      8.57735        -0.403536     -0.224988     -0.186078
Pb       7.60149      7.78772     13.04414        -0.029229     -0.315538     -0.637381
Pb       7.66392     11.82492      4.48379         0.143080     -0.204528     -0.287342
Pb       7.65834     11.55109      0.11814         0.080655      0.464383     -0.626394
Pb       7.59230     11.72076      8.75203        -0.009029      0.135054     -1.009718
Pb       7.72119     11.52232     13.16994        -0.283986      0.239009     -1.021614
Pb      11.54191      3.96167      4.34065         0.112506     -0.006756     -0.425208
Pb      11.39991      3.85162     17.43766        -0.023906      0.499010     -0.898284
Pb      11.55086      0.26882      4.33780        -0.625316     -0.392944     -0.368166
Pb      11.40360     15.33797      0.02859        -0.018522      0.087496     -0.823042
Pb      11.51509      3.96137      8.77989         0.010629      0.271378     -0.477057
Pb      11.62433      0.19939      8.76214        -0.341675     -0.183581     -0.671596
Pb      11.44091      3.83080     13.09378         0.463756      0.499347     -0.124784
Pb      11.53762     15.36930     13.06911         0.396065      0.341209     -0.338038
Pb      11.50138      7.83603      4.25516         0.328344      0.105785     -0.111339
Pb      11.53933      7.70736      0.04482         0.371071     -0.054807     -0.473355
Pb      11.52136      7.87691      8.55700        -0.509154     -0.365990     -0.241678
Pb      11.37462      7.73047     13.13590         0.468016     -0.242982     -0.599183
Pb      11.62727     11.70074      4.22145        -0.596243      0.148998      0.157428
Pb      11.56156     11.52847      0.03707         0.292195     -0.037423     -0.450148
Pb      11.43254     11.65989      8.62582        -0.233796      0.129187     -0.510258
Pb      11.50473     11.53270     13.07231         0.365089      0.221424     -0.524680
Ti       1.79461      1.93768      2.06115         1.096052     -0.428248      0.663521
Ti       1.89963      1.94179     15.29792         0.413298      0.163508     -0.310719
Ti       1.88804     13.54556      2.39115         0.030719     -0.907484     -0.869891
Ti       1.96713     13.40585     15.23095         0.239470      0.241103      0.331800
Ti      13.36236      2.06489      2.16215         0.440567      1.110778      0.261132
Ti      13.45143      2.08171     15.37539        -0.721344     -0.048640     -1.847778
Ti      13.42340     13.71083      2.31020        -0.014280     -0.955494     -1.380660
Ti      13.50724     13.52132     15.35462        -0.580374      0.409599      0.709194
Ti       1.81028      2.06380      6.80039        -0.037271     -1.426764     -0.466584
Ti       1.89818     13.49726      6.68322        -0.127384      0.909787      0.149642
Ti      13.38720      2.12643      6.61593         0.426148     -0.386707      1.396622
Ti      13.43004     13.70194      6.64892        -0.254083      0.147677      0.698950
Ti       1.92716      1.94440     11.00985         0.466410      0.363177      0.519238
Ti       1.95621     13.45846     10.94356        -0.841079     -0.024825     -0.849601
Ti      13.47054      2.09640     10.98044        -0.007364      0.303222      1.995446
Ti      13.44029     13.57774     10.87438         0.583789      0.185874      0.800445
Ti       1.89117      5.69741      2.21579         0.384860      0.426818     -0.173229
Ti       2.00707      5.77660     15.28991        -1.355385     -0.514636      1.705177
Ti      13.42462      5.80466      2.26442         0.260314      0.424044     -1.094341
Ti      13.40928      5.88025     15.33249         0.363017      0.297061     -0.508567
Ti       1.91067      5.81162      6.53227        -0.039953     -0.432878      1.019393
Ti      13.38916      5.88674      6.59838        -0.027967     -0.378207     -0.093520
Ti       1.91692      5.72858     11.10651         0.485111      1.009784     -1.838279
Ti      13.41231      5.93948     11.01156        -0.571133     -0.790488      0.239594
Ti       1.93974      9.56953      2.25910        -0.135661      0.407336      0.730570
Ti       2.02708      9.54857     15.34028        -1.631737      0.356383      0.627210
Ti      13.43860      9.78866      2.31014         0.737759     -0.613814     -1.120898
Ti      13.50811      9.70425     15.43424        -0.124505      0.057994      0.094158
Ti       1.92267      9.63498      6.50128         0.171174     -0.035563     -0.233402
Ti      13.40975      9.79625      6.53251         0.038262      0.222783     -1.774941
Ti       1.93311      9.60244     10.92979        -1.241293     -0.600409      0.192648
Ti      13.42767      9.75817     10.96329         0.103021     -0.068336      0.076623
Ti       5.63969      2.05645      2.17254         0.169501     -1.168188      1.539240
Ti       5.81905      2.07512     15.43333        -0.454285     -0.891210     -1.459030
Ti       5.68602     13.60433      2.32036        -0.079295     -0.155125      0.550706
Ti       5.75613     13.55263     15.32242         0.725246      0.097606     -0.081068
Ti       5.72335      1.98238      6.79587        -0.045283     -0.051341     -0.851684
Ti       5.67671     13.57478      6.71500         0.934163     -0.282965     -0.468656
Ti       5.81802      1.95974     11.01989        -1.134533      0.163271      0.283586
Ti       5.72067     13.51546     11.03268         0.402558     -0.054294     -1.299199
Ti       5.76005      5.80115      2.23682        -0.065685      0.364855     -0.097106
Ti       5.79204      5.89281     15.35886         0.411863     -0.140036      0.084382
Ti       5.80818      5.82791      6.56430        -0.531062      0.402824      1.484339
Ti       5.81970      5.80444     11.01464        -0.262973      0.676614     -0.450869
Ti       5.78539      9.70972      2.29368         0.066205      0.176682     -0.625695
Ti       5.80630      9.64585     15.42968         0.131367      0.079482     -0.743015
Ti       5.76207      9.71565      6.55259        -0.009776      0.058278      1.315175
Ti       5.72519      9.71410     10.95416         0.694245     -1.027154     -0.443382
Ti       9.52383      2.07768      2.31178        -0.418707     -1.173419      0.628224
Ti       9.55302      2.02440     15.36543         0.305129      0.169699     -0.619869
Ti       9.50695     13.60832      2.34825         0.089859      0.426571      0.195054
Ti       9.58427     13.46798     15.37793        -0.565178      0.843938      1.821097
Ti       9.53856      1.99774      6.66262         0.171235      0.054765     -0.422298
Ti       9.60277     13.63156      6.56172        -0.690792     -0.511043      0.021435
Ti       9.55129      1.92138     11.10718         0.469322      0.620214      0.458432
Ti       9.62142     13.48451     10.93742        -0.082974      0.221249      0.322680
Ti       9.68260      5.84037      2.29063        -1.436270     -0.045319     -0.490018
Ti       9.58903      5.92173     15.34497         0.139327     -1.458521      2.555804
Ti       9.56607      5.84247      6.49919         0.720960      0.273816      1.405501
Ti       9.65007      5.85800     10.95801         0.140134     -0.512969      0.796630
Ti       9.61905      9.74796      2.33232        -0.253292      0.756737      0.154921
Ti       9.63456      9.65882     15.39199         0.511381      0.007771     -0.204375
Ti       9.59890      9.75308      6.43820        -0.599387      0.378277     -0.245893
Ti       9.62423      9.73182     11.02107        -0.115890     -0.376870     -1.074360
O       1.90666      1.87881      0.26273        -0.100831      0.346899      1.239191
O       1.80298      1.84765     13.48362         0.345761      0.223970      0.962392
O       1.92836     13.46124      0.58461         0.028245      0.135904      0.207890
O       2.00461     13.48602     13.46262        -0.251964     -0.323457      0.983690
O      13.25012      2.17981      0.39940         0.536057     -0.573343      0.144642
O      13.57636      2.07862     13.49126        -0.000890     -0.080606      2.132602
O      13.38024     13.64399      0.45149         0.292477      0.244572      1.523004
O      13.55326     13.60079     13.58758        -0.156696     -0.496120      0.824262
O       1.79550      1.91482      4.96086         0.077527      0.205813      1.352306
O       1.82207     13.75597      4.86057         0.124542     -0.733273      1.103151
O      13.51607      2.04045      4.84375        -0.442523      0.345096      0.067651
O      13.42656     13.69846      4.89236         0.265386      0.315230     -0.634179
O       2.05846      2.04434      9.24616        -0.455680     -0.232999     -0.385287
O       1.99225     13.43208      9.03080         0.184759     -0.131636      2.512728
O      13.31895      2.00736      9.24090        -0.167364      0.261290     -0.052412
O      13.34002     13.62559      9.05228         0.228393     -0.336531      1.500384
O       1.95658      5.61901      0.39611        -0.032649      0.187318      1.736633
O       1.99303      5.70976     13.56481        -0.279485      0.538257     -1.012460
O      13.27937      5.72404      0.47400         0.353571      0.340860      0.944112
O      13.52067      6.03079     13.50875        -0.078917      0.007939      1.141413
O       1.97083      5.57655      4.78610        -0.341693      0.602119      0.543564
O      13.45495      5.91460      4.80086        -0.212289     -0.057926      0.364396
O       1.88420      5.74927      9.21063         0.003902     -0.123900      1.225284
O      13.33530      5.73547      9.20969        -0.000143      0.484346     -0.202819
O       2.05318      9.68214      0.48327        -0.156484     -0.266561      0.150182
O       1.76808      9.58677     13.58633         0.334658     -0.181223      0.065020
O      13.38801      9.75634      0.47960        -0.151939      0.304472      0.902255
O      13.61683      9.75575     13.61159        -0.049832     -0.038093      0.440355
O       1.89842      9.64560      4.72764        -0.025441      0.019069      0.490754
O      13.50537      9.76597      4.64507        -0.122109      0.009542      2.162027
O       2.01964      9.57960      9.16214        -0.260185      0.101147     -0.217724
O      13.37940      9.85785      9.19155         0.065451     -0.356898     -0.934740
O       5.79528      2.06562      0.44465        -0.350689      0.137973     -0.657509
O       5.96862      2.09530     13.57329        -0.452721     -0.264863      1.467656
O       5.69160     13.53888      0.58517        -0.004076      0.039236     -0.427623
O       5.81247     13.46908     13.47838         0.154628     -0.043530      1.130108
O       5.79459      2.00815      4.97930        -0.099105     -0.003749      0.589113
O       5.76715     13.57461      4.85953        -0.327403     -0.027921      0.869838
O       5.76178      2.01419      9.24665         0.303475     -0.177619      0.323943
O       5.75834     13.46518      9.15358        -0.062185     -0.007054      1.705105
O       5.66733      5.79066      0.35256         0.362207      0.121498      2.712215
O       5.85245      5.90532     13.50107        -0.033668     -0.055586      1.843257
O       5.87607      5.86697      4.78924        -0.391451     -0.033918      0.889834
O       5.76710      5.81671      9.23270         0.087821      0.074584      0.892606
O       5.73689      9.56951      0.43930         0.030823      0.355081      0.978009
O       5.85424      9.56957     13.52905        -0.235764      0.684149      2.162073
O       5.76139      9.69747      4.80546        -0.017810     -0.093119     -1.034021
O       5.65796      9.50213      9.19081         0.087274      0.720074      0.441107
O       9.56852      1.98462      0.55615         0.125913      0.140263      0.040483
O       9.42585      2.11189     13.53322         0.351568     -0.609684      0.799244
O       9.41112     13.74318      0.53444         0.577715     -0.752406      0.884955
O       9.49378     13.54624     13.64887         0.104516     -0.548674     -0.705958
O       9.35598      1.95565      4.87596         0.905295      0.388799      0.792990
O       9.39219     13.61369      4.75848         0.894410      0.011805      1.180250
O       9.54647      1.77702      9.35132         0.288872      0.523358     -0.009098
O       9.70884     13.41629      9.15272        -0.396726      0.090454      0.426391
O       9.70046      5.83843      0.43275        -0.142366      0.389477      2.366145
O       9.57059      5.92380     13.63190         0.030323      0.324141     -1.285803
O       9.53350      5.82776      4.73671         0.271296      0.106361      0.578775
O       9.80704      5.77453      9.21501        -0.296664      0.596337     -0.005643
O       9.67494      9.78056      0.48596        -0.162257     -0.301982      0.637120
O       9.63650      9.63511     13.52004        -0.145568      0.473607      1.415535
O       9.53434      9.83241      4.65142         0.296617     -0.572516      0.895745
O       9.66324      9.81402      9.19839         0.145476     -0.339954      1.113883
O       3.76839      2.07941      2.58632        -0.082877     -0.282034     -0.245009
O       3.88005      1.91369     15.63527        -0.648402      0.497966     -0.033371
O       3.74596     13.66765      2.77737         0.658945     -0.397670      0.229714
O       3.91452     13.51765     15.80779        -1.671552      0.189284     -0.373148
O      15.31880      2.28909      2.47403        -0.089381     -0.578829      0.040878
O      15.32340      2.16190     15.78200         0.346871     -0.157288     -0.106224
O      15.32658     13.65819      2.69785        -0.274655      0.051906      0.095396
O       0.08820     13.23462     15.79158        -0.122354      0.565381     -0.443695
O       3.89523      2.01517      7.14516        -1.679286      0.151023     -0.127637
O       3.83507     13.53249      6.96107        -1.231965     -0.287051     -0.055933
O      15.27615      2.10956      7.19811         0.513043      0.335983     -0.534126
O       0.01450     13.52400      7.19643        -0.220937     -0.581830     -0.831022
O       3.84722      1.85545     11.37499         1.071677      0.290566      0.529108
O       3.84173     13.48731     11.46362         0.053538     -0.277864     -0.452531
O       0.02344      1.95099     11.30958         0.133509     -0.208751     -0.044209
O      15.33589     13.64326     11.25898         0.857803      0.245368     -0.196649
O       3.83620      5.76308      2.73858         0.268094     -0.194615     -0.520399
O       3.85028      5.71642     15.78673         0.360710      0.415898     -0.727812
O      15.34363      5.83662      2.66378         0.152899      0.581294     -0.145056
O      15.34897      5.87891     15.79817        -0.014931      0.416014     -0.310875
O       3.82869      5.77125      7.11957        -0.191605      0.146102     -1.277764
O      15.28687      5.89863      6.94720         0.712636      0.201522      0.176478
O       3.92246      5.84392     11.53666        -0.292030      0.254571     -0.368942
O       0.01388      5.70864     11.31144         0.234723     -0.142936      0.321281
O       3.90502      9.69380      2.68260        -0.673956     -0.940439      0.195376
O       3.81921      9.48669     15.83245         0.939883      0.416586     -0.705925
O       0.01990      9.56531      2.53684         0.247001      0.369806      0.260709
O       0.03780      9.47557     15.92671         0.323933      0.735963     -0.565094
O       3.82377      9.64943      6.86584        -0.725100     -0.139394      0.144483
O      15.30838      9.82710      6.96101         0.084060     -0.182887      0.115774
O       3.75702      9.59583     11.50489         0.880596      0.632869     -0.592338
O      15.30415      9.68155     11.24128         0.937631      0.237165      0.598319
O       7.62839      1.98386      2.75623         0.023643      0.596201     -0.621489
O       7.68002      2.13801     15.91525        -0.013529     -0.699590     -0.287528
O       7.61575     13.41960      2.75120        -0.053712      0.617738     -0.570398
O       7.63003     13.52826     15.83987        -0.102067     -0.460192     -0.383771
O       7.63751      1.99412      7.17394         0.418575     -0.014410      0.201698
O       7.67763     13.52407      6.95975        -0.033743     -0.218230      0.494347
O       7.67703      2.06613     11.39037         0.132083     -0.495763     -0.149201
O       7.72584     13.42698     11.28737        -0.272418     -0.147419      0.185298
O       7.68877      5.85262      2.71497        -0.118316      0.316556     -0.975425
O       7.73229      5.88971     15.97752        -0.797228      0.254745     -0.855428
O       7.73188      5.94480      7.13351        -0.441280     -0.279413     -0.783231
O       7.74726      5.97688     11.37108        -0.244044     -0.267116     -0.258307
O       7.69197      9.79362      2.46156        -0.484161     -0.280310      0.178048
O       7.66804      9.66640     15.81631         0.037027     -0.170121     -0.200508
O       7.69882      9.73721      6.89190        -0.342299     -0.641945      0.378117
O       7.65165      9.75139     11.20935         0.953313      0.041241      0.497180
O      11.52928      2.13091      2.71043        -0.604847     -0.304418      0.181508
O      11.51816      1.96085     15.69179        -0.376399      0.080881     -0.051888
O      11.50798     13.71152      2.61806         0.125594     -0.211285      0.310283
O      11.48247     13.66701     15.70739         0.382233     -0.497179     -0.023071
O      11.46174      1.89729      7.01776        -0.113868      0.458178     -0.336585
O      11.55338     13.65765      6.97329        -1.101863     -0.192020     -0.245631
O      11.61369      2.13385     11.61377        -1.166193     -0.993407     -1.099771
O      11.56123     13.62384     11.39569         0.247301     -0.562346      0.010450
O      11.56104      5.93044      2.69750        -1.056007     -0.194596      0.255620
O      11.49373      5.85990     15.78854         0.288178      0.278481     -0.430324
O      11.49041      5.94438      6.97485        -0.404686     -0.186565     -0.275552
O      11.53388      5.70238     11.54922        -0.549897      1.010908     -0.372053
O      11.56534      9.77675      2.62718        -0.441003      0.101347      0.329441
O      11.57884      9.70270     15.69421        -0.925538      0.232935     -0.011646
O      11.51462      9.73385      6.87249         0.765458      0.107682      0.078230
O      11.58717      9.84333     11.41049        -0.500959     -0.236865      0.360040
O       1.89764      3.81735      2.76837         0.130411     -0.039159     -0.835952
O       1.91916      3.85906     15.70648         0.096402     -0.494479     -0.079986
O       1.84064      0.08675      2.64408        -0.219220      1.054362     -0.152039
O       1.82264      0.06898     15.68997         0.309210     -1.652247     -0.026748
O      13.39865      3.96881      2.69519        -0.378890     -0.045090      0.230144
O      13.45259      4.01452     15.63200        -0.292145     -0.619379      0.126150
O      13.46256      0.25104      2.75605        -0.064993     -0.178931     -0.577407
O      13.52285     15.50669     15.74010         0.272577     -0.667231     -0.178198
O       1.82377      3.87755      7.14327         0.426970      0.481438     -0.481187
O       1.85965      0.02981      7.28646         0.567494      0.517127     -0.775840
O      13.23906      3.95710      7.02429         0.237775      0.535195     -0.350450
O      13.44010      0.22680      7.16468         0.176627     -0.292343     -0.552503
O       2.07878      3.88516     11.40981        -0.322525     -0.530238      0.170677
O       2.05272     15.38708     11.32989        -0.756385     -0.712080     -0.250780
O      13.49128      4.06741     11.48674         0.196479     -1.356016     -0.356518
O      13.49156     15.50038     11.56393        -0.425381      0.105312     -1.147798
O       1.91283      7.62350      2.64884         0.118487     -0.034014     -0.198689
O       1.81993      7.64139     15.87201         0.927974      0.089895     -0.796962
O      13.40495      7.85045      2.60103         0.352976     -0.588319      0.361795
O      13.42793      7.79062     15.84771         0.168051      0.277810     -0.078754
O       1.93473      7.71911      6.79894        -0.333085     -0.540666      0.222843
O      13.46708      7.81531      6.94787        -0.254311      1.023730      0.233798
O       1.90951      7.68120     11.24635         0.297172      0.112448      0.828846
O      13.41832      7.77856     11.13272        -0.263285      1.267190      0.575476
O       1.98601     11.52229      2.66871        -0.415299      0.265059      0.311582
O       2.12142     11.50441     15.69891        -0.584354      0.037885     -0.200093
O      13.42670     11.76582      2.72503         0.173485     -0.018460     -0.289942
O      13.46854     11.60101     15.92439        -0.133047      0.909822     -0.811445
O       1.93034     11.51116      7.02794        -0.519415      0.645056     -0.571631
O      13.47983     11.75518      6.92516        -0.175596     -1.030735     -0.137981
O       1.88472     11.52592     11.27698         0.298308     -0.024439      0.294492
O      13.58236     11.67616     11.39176        -0.679739      0.497169     -0.046858
O       5.77712      3.89233      2.82329        -0.165855      0.628156     -1.018256
O       5.86622      3.96380     15.82264        -0.718721      0.206912     -0.586469
O       5.70749      0.17448      2.67707         0.096287     -0.287695     -0.085336
O       5.71926      0.08959     15.74274         0.657801      0.048117     -0.197936
O       5.79629      3.96552      7.08260         0.328882      0.378471     -0.294744
O       5.64732     15.43599      7.09910         0.652830     -0.013071      0.008142
O       5.69188      3.90536     11.45903         0.774552     -0.042094     -0.528206
O       5.87702     15.37706     11.49481        -0.268020      0.384398     -0.427122
O       5.75332      7.69866      2.75348         0.119927      0.343946     -0.503681
O       5.68092      7.71122     15.82595         0.509548      0.473016     -0.450631
O       5.69848      7.78566      7.00368         0.477826     -0.758817     -0.392826
O       5.80720      7.83133     11.47316        -0.339072     -0.462696     -0.234962
O       5.59319     11.65028      2.62383         0.340012     -0.635542      0.043022
O       5.69728     11.63199     15.74861         0.134580     -1.564620     -0.121341
O       5.67943     11.55815      7.04187         0.292799      0.476891      0.024578
O       5.70223     11.57796     11.42416        -0.010839     -0.084153     -0.037855
O       9.58435      3.98471      2.68843         0.406877      0.014445     -0.120742
O       9.60641      3.89471     15.70005         0.020779      0.531644      0.189977
O       9.56844      0.15199      2.76262         0.099808     -0.011166     -0.312890
O       9.40757     15.45082     15.79119         0.561089      0.208083     -0.267233
O       9.56045      3.90153      7.10444         0.184554      0.580182     -0.557382
O       9.49333     15.47367      7.09938         0.195446     -0.457518     -0.207232
O       9.54616      3.92047     11.35988         0.249986     -0.002486      0.021989
O       9.62326     15.34416     11.49196        -0.206865      0.995516     -0.049053
O       9.62936      7.87365      2.83085        -0.224890     -0.977520     -0.953202
O       9.65704      7.77380     15.83962        -0.256403      1.056794     -0.212417
O       9.63042      7.81490      6.91234        -0.161364     -0.199382     -0.054985
O       9.78771      7.82282     11.42600        -0.408022      0.050826     -0.533649
O       9.66308     11.64944      2.81173         0.005315      0.674670     -0.937161
O       9.57169     11.56015     15.81754         0.047576      0.198507     -0.327241
O       9.53236     11.58234      6.90579         0.758497      1.134148      0.171834
O       9.70945     11.64236     11.46853        -0.192583     -0.439256      0.260675
