  # total energy = -7883.60865975 
CRSYTAL
PRIMVEC
    15.3600000000000000    0.0000000000000000    0.0000000000000000
     0.0000000000000000   15.3600000000000000    0.0000000000000000
     0.2400000000000000    0.0000000000000000    17.440000000000000
PRESSURE
0.63112 0.57527 0.580188 -0.291765 -0.954306 -0.035552
PRIMCOORD
320 1
Pb       3.92027      3.84919      4.29908        -0.532570      0.535718     -0.002563
Pb       4.08647      3.81655     17.37756        -0.303147     -0.106222      0.599807
Pb       3.95699     15.28964      4.33102        -0.907269      0.036339      0.784886
Pb       4.03295     15.35427     17.42113        -0.293884     -0.290255      0.129952
Pb      15.37318      3.81619      4.26666         0.139280      0.250088      0.567669
Pb       0.26771      3.82455     17.42444        -0.500195     -0.037290      0.182319
Pb      15.38407      0.03112      4.34429        -0.082743     -0.439120      0.334369
Pb      15.26963     15.32384      0.00315        -0.268922     -0.465110      0.031105
Pb       4.01348      3.73877      8.62735        -0.127134      0.499775      0.790075
Pb       3.90797     15.35595      8.79721         0.052212     -0.216761     -0.673867
Pb      15.42084      3.83309      8.61302         0.258827     -0.259488      0.385424
Pb      15.46697     15.34945      8.68474        -0.243065     -0.189737     -0.210178
Pb       3.94478      3.80021     13.02945         0.337031      0.219237     -0.002691
Pb       4.03591     15.34727     13.07394        -0.035106      0.198937     -0.538304
Pb       0.18215      3.82758     13.05009        -0.144886     -0.078804     -0.461231
Pb       0.19197      0.07466     13.01536        -0.114415     -0.379854     -0.050353
Pb       3.82938      7.67141      4.30065         0.328246     -0.305363      0.132623
Pb       4.02280      7.65330     17.35368        -0.249200     -0.127078      0.108600
Pb      15.38305      7.66450      4.29822        -0.274371     -0.059166      0.287193
Pb      15.57229      7.71732     17.37143        -0.526342      0.292638      0.020699
Pb       3.90169      7.67375      8.69736         0.495908     -0.188624     -0.245415
Pb      15.44902      7.68351      8.69679        -0.582015     -0.077052      0.303743
Pb       4.01626      7.71812     12.90925        -0.117095      0.275872      1.220152
Pb      15.41713      7.66056     13.07521         0.653986      0.298617     -0.237323
Pb       3.83355     11.50682      4.31771        -0.051513     -0.540723      0.903922
Pb       3.86323     11.52522      0.05712        -0.655249      0.138457     -0.406997
Pb       0.12463     11.53290      4.27961        -0.580293     -0.116469      1.214897
Pb       0.25869     11.46216     17.38385        -0.891774      0.229929      0.464638
Pb       3.88806     11.51737      8.72996         0.357550     -0.113260     -0.722945
Pb      15.46399     11.45036      8.66045        -0.595159      0.064223     -0.082040
Pb       3.98483     11.49481     13.05799         0.082362     -0.581163      0.271779
Pb       0.22139     11.52132     13.00395        -0.152819     -0.327838      0.202203
Pb       7.69260      3.81380      4.26474         0.362532      0.319012     -0.019673
Pb       7.96177      3.89890     17.42592        -0.176866     -0.082802     -0.356818
Pb       7.71383      0.03997      4.30172         0.197515     -0.256224      0.347841
Pb       7.86647     15.28962     17.31671         0.258884      0.268052      0.855021
Pb       7.76858      3.81772      8.66061        -0.437862      0.401635      0.241481
Pb       7.82971      0.01239      8.68947        -0.242533     -0.122530     -0.143337
Pb       7.84742      3.71830     13.07569        -0.145041      0.482024     -0.447821
Pb       7.81482     15.33155     13.05686         0.128285     -0.035100     -0.259346
Pb       7.71871      7.72245      4.25995         0.051430     -0.388319      0.137908
Pb       7.87267      7.64154     17.43602         0.064706     -0.047826     -0.567301
Pb       7.83366      7.65714      8.73265        -0.806679      0.121866     -0.437220
Pb       7.84458      7.63011     13.05848         0.121201      0.374366     -0.179657
Pb       7.65412     11.50554      4.29243         0.311914     -0.264467     -0.103095
Pb       7.86536     11.46574     17.40983         0.204021      0.018276     -0.393943
Pb       7.80412     11.54468      8.73695        -0.307788     -0.724403     -0.642978
Pb       7.84644     11.48613     13.03368         0.073866     -0.445494      0.113363
Pb      11.56136      3.82128      4.24958        -0.371385      0.146950      0.842546
Pb      11.74605      3.84309     17.39205         0.038144     -0.302458     -0.022865
Pb      11.55849     15.34369      4.34706        -0.065318     -0.419230     -0.292664
Pb      11.79424     15.25498     17.30472        -0.763377      0.488774      0.949940
Pb      11.58907      3.80833      8.66551         0.056109     -0.015479     -0.605715
Pb      11.56567     15.32092      8.72627         0.062355     -0.027640     -0.430205
Pb      11.70566      3.87831     13.09069        -0.112148     -0.281855     -0.464212
Pb      11.70115     15.35199     13.04203         0.097907     -0.471024     -0.066597
Pb      11.56402      7.67043      4.39965        -0.196787      0.073473     -0.674678
Pb      11.77864      7.66242     17.39777         0.336324      0.493311     -0.104073
Pb      11.58364      7.62833      8.61518         0.631899      0.417550      0.052556
Pb      11.67422      7.60230     13.09644        -0.417528      0.595439     -0.517066
Pb      11.52943     11.50487      4.28183         0.039997      0.375840     -0.100408
Pb      11.72652     11.45175     17.40634         0.629094      0.122706      0.411667
Pb      11.63511     11.51860      8.63866         0.252827     -0.790187      0.302836
Pb      11.69684     11.56074     13.01216         0.070163     -0.020364      0.043409
Ti       1.90219      1.90244      2.36009         0.378161      0.081201     -0.305774
Ti       2.07961      1.87425     15.47640        -0.708376     -0.233920     -0.401886
Ti       1.90909     13.41459      2.35495        -0.363098     -0.035111      0.974860
Ti       2.05005     13.42809     15.40216        -0.364967     -0.495271      0.224975
Ti      13.44123      1.91269      2.33781        -0.295857     -0.537127     -0.546689
Ti      13.59922      1.92057     15.38334         0.019354     -0.154776      2.090040
Ti      13.50294     13.45343      2.39936        -0.945998     -1.171687     -1.249422
Ti      13.54488     13.41907     15.37154         0.951568     -0.752063     -1.067272
Ti       2.04407      1.88221      6.61032        -0.560185      0.220901      0.302772
Ti       1.97267     13.40342      6.71347        -0.137143     -0.094582     -0.468462
Ti      13.52687      1.87518      6.67001        -0.236727      0.091786      0.212472
Ti      13.40142     13.44328      6.68519         1.476114     -0.891905     -0.638535
Ti       2.07783      1.96989     11.04413         0.347086     -0.354710      0.522677
Ti       2.17598     13.38598     11.05022        -0.563180      0.274202     -0.465230
Ti      13.52045      1.84019     10.93715         1.321015      0.158267      0.815562
Ti      13.67393     13.36904     11.02746        -0.400979      0.050704      1.474520
Ti       1.88913      5.76969      2.32633         0.680716     -0.508715      0.618238
Ti       2.06886      5.73175     15.41161         0.678220      0.545404     -0.836943
Ti      13.40916      5.76478      2.30717         0.584646      0.606859     -0.152180
Ti      13.62865      5.73293     15.36405        -0.122981      0.111943      0.616537
Ti       2.04551      5.69696      6.73219        -0.659976      0.187810     -1.409964
Ti      13.56541      5.77280      6.63327        -0.655437     -0.419914      0.721454
Ti       2.05985      5.83852     11.04531        -0.268867     -0.943366     -0.566629
Ti      13.53952      5.71426     11.01520         0.172189      0.157078      1.609016
Ti       1.96518      9.53650      2.34826        -0.536394      0.298233      1.709810
Ti       2.15159      9.64812     15.38529        -0.635910     -0.273721     -1.130533
Ti      13.50812      9.66474      2.47271        -0.532730     -0.647983     -2.166675
Ti      13.69606      9.67907     15.31748        -0.451483     -0.711784      2.592805
Ti       1.96227      9.50813      6.67534         0.574681      0.385593      1.068722
Ti      13.56086      9.59824      6.58055        -0.080926      0.182382      0.598580
Ti       2.02320      9.59477     10.92161        -0.581549     -0.076048      2.421512
Ti      13.49764      9.53827     11.10461         0.772231      0.428358     -2.790619
Ti       5.71665      1.90010      2.33314         0.792236      0.398143     -1.364248
Ti       5.92927      1.88550     15.44201         0.590578      0.087544      0.241992
Ti       5.69229     13.45784      2.38497         1.216116     -0.781362      1.962858
Ti       5.88257     13.39628     15.34102        -0.323237      0.468569      0.205265
Ti       5.84942      1.81829      6.69286         0.246512      0.233153      1.892074
Ti       5.83680     13.35845      6.64114        -0.847515     -0.000213      0.658589
Ti       5.98015      1.94363     10.93030        -1.208985     -0.028451      1.695475
Ti       5.92386     13.39335     10.96037        -0.020213      0.080656      0.459277
Ti       5.78187      5.77386      2.23924        -0.321672      0.141370      1.426355
Ti       5.86921      5.72763     15.38884         0.559293      0.660469     -0.018112
Ti       5.76857      5.78545      6.64371         0.664762     -0.143812      1.367578
Ti       5.85896      5.78639     11.09502         0.898919     -0.664179     -2.324792
Ti       5.80892      9.61401      2.21153        -0.212457     -1.150362      0.431958
Ti       5.93197      9.59970     15.50054         0.380432     -0.549378     -0.741498
Ti       5.81399      9.57100      6.63429         0.182672     -0.426770      1.002512
Ti       5.90114      9.61954     10.95301         0.238720     -0.163045     -0.315373
Ti       9.63958      1.89637      2.26900        -0.115861      0.280062      1.222949
Ti       9.77498      1.88704     15.40615         0.291525     -0.271854      0.039175
Ti       9.51211     13.46808      2.25052         1.244963     -0.429583      0.611890
Ti       9.73028     13.35674     15.42527         0.439682      1.059829      0.523471
Ti       9.64670      1.84039      6.66116         0.347262      0.564139      1.603794
Ti       9.55934     13.36593      6.55197         0.929063      0.104869      0.886779
Ti       9.78626      1.84906     11.00816        -0.125098      0.560777     -0.105948
Ti       9.73260     13.42340     10.97984         0.732555     -0.093383      0.717349
Ti       9.64591      5.75916      2.20986        -0.190163     -0.037335      0.631819
Ti       9.82102      5.76092     15.37098        -0.627881     -0.032198      1.112801
Ti       9.63269      5.73811      6.71641         0.277514     -0.047862     -0.647294
Ti       9.69546      5.72369     10.99502        -0.074598      0.205624      2.877044
Ti       9.64165      9.58800      2.18753         0.420851     -0.256747      1.504314
Ti       9.84087      9.56919     15.38066        -0.263528     -0.222265     -0.177082
Ti       9.68962      9.61877      6.68015        -0.769373     -0.348905      1.088721
Ti       9.68571      9.62854     10.95240         0.348976     -0.917479      1.394556
O       1.96207      1.97233      0.57621        -0.300686     -0.282293      0.617999
O       2.03404      1.86293     13.67531         0.156038      0.033801      0.816844
O       1.85585     13.36008      0.62361         0.260430      0.171437     -0.100415
O       2.07658     13.41613     13.63499         0.158880      0.033530      0.002964
O      13.37398      1.84628      0.57931         0.045773      0.210118      0.584448
O      13.55462      1.95028     13.69454         0.208886     -0.084995     -1.675198
O      13.61422     13.26118      0.59784        -0.690879      0.639638      1.102713
O      13.51409     13.34574     13.55193         0.228998      0.281857      1.401394
O       1.86618      2.00332      4.83924         0.429791     -0.513626      0.780064
O       2.01151     13.43058      4.92405        -0.152191     -0.242651      1.039480
O      13.61256      1.83873      4.89139        -0.322391      0.114370      0.534841
O      13.41765     13.49026      4.90879        -0.180672     -0.102204      0.352677
O       2.20492      1.86269      9.31951        -0.478941      0.069086      0.107960
O       2.37201     13.31961      9.23329        -1.037185      0.612548      1.474295
O      13.59002      1.73310      9.18778        -0.337072      0.365705     -0.250119
O      13.73288     13.43412      9.30457        -0.604407     -0.138191     -0.476654
O       1.88531      5.72662      0.57863        -0.008090      0.060166     -0.213897
O       2.18569      5.72834     13.61986        -0.413007     -0.176961      1.336051
O      13.42917      5.78814      0.51390        -0.100701     -0.049630      1.143045
O      13.52006      5.64365     13.57036         0.244365      0.292313      0.844073
O       2.15355      5.74560      4.89559        -0.645406     -0.233015      1.540307
O      13.66162      5.75394      4.89864        -0.483792      0.028021     -0.159776
O       2.09210      5.78480      9.25158        -0.143628     -0.113767      1.374669
O      13.46944      5.79296      9.30155         0.050320     -0.287149     -0.378506
O       1.82000      9.56605      0.66773         0.241490     -0.061996     -1.863031
O       2.11459      9.70973     13.61108         0.079247     -0.151065      0.590853
O      13.52617      9.60175      0.58581        -0.258869      0.103027      1.627710
O      13.69526      9.50945     13.62831        -0.400031      0.273692     -1.643425
O       1.90949      9.67168      4.96147         0.036214     -0.541735     -0.991912
O      13.62730      9.53998      4.78197        -0.465859      0.082130      1.407350
O       2.10296      9.51727      9.19187        -0.326146      0.078488      0.072293
O      13.59788      9.53204      9.24143        -0.319806      0.034505      1.524879
O       5.81996      1.96603      0.52282        -0.476565     -0.413843      1.319321
O       5.97050      1.82882     13.68263        -0.107928     -0.032617      0.560144
O       5.46658     13.50245      0.72067         0.328723     -0.158032     -1.987657
O       5.79024     13.48902     13.57770         0.521986     -0.177452      0.520073
O       5.91022      1.96498      5.00406        -0.060237     -0.178942     -2.014430
O       5.79690     13.30297      4.88986         0.112955     -0.000804     -0.547490
O       5.92452      1.83297      9.20407        -0.086659      0.031725     -0.452749
O       5.79466     13.38644      9.19303         0.279227     -0.115086      0.827580
O       5.81601      5.77395      0.52804        -0.333012     -0.272506     -1.343424
O       5.80145      5.80372     13.62996         0.249227     -0.172275      0.304476
O       5.77092      5.84605      4.88446         0.146601     -0.252942      0.105188
O       5.89316      5.70681      9.23108        -0.325911      0.206966      2.281473
O       5.75066      9.68804      0.41686         0.026036     -0.407673      0.775809
O       5.99430      9.59483     13.73487        -0.156512      0.207384      0.601515
O       5.82416      9.48959      4.86924         0.372522      0.083160     -0.325675
O       5.82096      9.60244      9.17497         0.339526     -0.054820      1.021402
O       9.72201      1.95721      0.54616        -0.540009      0.112235     -0.232647
O       9.75372      1.76757     13.61892        -0.000185      0.381725      0.495948
O       9.47937     13.57842      0.49756        -0.080499     -0.687519      0.164842
O       9.83522     13.58591     13.71066        -0.119180     -0.204652     -0.800961
O       9.51532      1.89864      4.95566         0.158069      0.101549     -0.816694
O       9.67930     13.37418      4.77976        -0.292811     -0.105455      0.969061
O       9.69299      1.62169      9.24210         0.335593      0.814199      0.641782
O       9.70179     13.44464      9.22558        -0.063084     -0.230605      0.685120
O       9.68122      5.64791      0.42179        -0.304012      0.270970      0.837643
O       9.82897      5.72744     13.61995         0.048789      0.003872     -0.009550
O       9.59306      5.80007      4.95644        -0.050470     -0.286925      0.418255
O       9.69032      5.72534      9.30443         0.161462      0.128217     -1.607604
O       9.62833      9.49417      0.45601        -0.237190      0.321765     -0.347049
O       9.73702      9.56670     13.60772         0.217901     -0.175452      0.902406
O       9.54941      9.67395      4.96742         0.186436     -0.261423     -0.999303
O       9.57313      9.67432      9.19861         0.429179     -0.239545      0.174514
O       3.84038      1.75324      2.74422         0.562450      0.448550     -0.121896
O       3.96278      1.81600     15.85444         0.911382      0.211511     -0.405842
O       3.86981     13.35700      2.94869        -0.385761      0.247087     -1.030109
O       3.95951     13.48482     15.80545         0.684730     -0.164059      0.073518
O      15.36551      1.88292      2.67647         0.211103      0.036502     -0.011751
O      15.47408      1.76071     15.92584         0.949876      0.656593     -0.523631
O      15.36742     13.40072      2.85423         1.065739      0.182427     -0.373310
O      15.45108     13.33219     15.85312         0.487108      0.485995     -0.561130
O       3.94370      1.74881      7.07516         0.108435      0.225414     -0.307887
O       3.95315     13.35594      7.06290        -0.328197      0.340729     -0.119522
O       0.10506      1.97438      7.16955         0.026016     -0.561916     -0.537647
O      15.40748     13.44982      7.14529         1.237296     -0.156083     -0.164559
O       4.04706      1.92213     11.45604        -0.382943     -0.321804      0.016893
O       4.05063     13.22293     11.52229        -0.111020      1.290860     -0.642823
O      15.47445      1.92272     11.45414         0.995617      0.120760     -0.097511
O       0.20282     13.30063     11.45456         0.407193      0.534925     -0.363166
O       3.86465      5.84669      2.78408         0.000840     -0.574241     -0.674594
O       3.97591      5.66629     15.97679         0.083045      0.464915     -0.655199
O      15.34660      5.71025      2.70336         0.262839      0.126207     -0.135848
O      15.56327      5.72106     15.88771        -0.239183      0.256927     -0.692046
O       3.84786      5.70834      7.11516         1.612446      0.192374     -0.101115
O      15.42776      5.62659      7.18505         0.084122      0.189669     -0.581690
O       4.01161      5.84967     11.56143        -0.486063     -0.352535     -0.784320
O       0.18182      5.66578     11.49139        -0.667315      0.246895     -0.295218
O       3.87957      9.57202      2.72598         0.459922      0.040285     -0.518453
O       3.97172      9.66838     15.81801         1.217520     -0.184675      0.434741
O      15.34849      9.55028      2.79347         1.471846      0.197866     -0.115688
O       0.22131      9.63136     15.74303        -0.322166     -0.095349      0.147581
O       3.86691      9.37735      6.99423         0.362326      0.489266     -0.035693
O      15.41764      9.48750      7.20390         0.369418      0.210457     -0.686714
O       4.03138      9.59104     11.40597        -0.592958     -0.062493     -0.304249
O      15.45284      9.63487     11.43179         1.914023     -0.210619     -0.148019
O       7.70578      1.87117      2.82276        -0.536147      0.477631     -0.720937
O       7.87945      1.93524     15.79427        -0.542271     -0.079901     -0.005988
O       7.71035     13.40394      2.79004        -0.652041      0.291065     -0.453103
O       7.79146     13.41898     15.76342        -0.105424      0.025364      0.071939
O       7.79685      1.91808      7.24471        -0.165430     -0.317150     -0.698894
O       7.73344     13.28559      7.01044         0.970774      0.035955     -0.088922
O       7.82111      1.94987     11.48353         0.698939     -0.110392     -0.236482
O       7.86934     13.35042     11.47419         0.003783      0.313990     -0.456448
O       7.75953      5.67272      2.56750        -0.364505      0.246786      0.169857
O       7.84562      5.79250     15.80537         0.498746     -0.032047     -0.181050
O       7.74109      5.71507      7.22131         0.062619     -0.055973     -0.806206
O       7.78447      5.63018     11.52439         0.797536      0.111987     -0.072411
O       7.78219      9.39235      2.67854        -0.837891      0.747642     -0.563392
O       7.88498      9.54739     15.85201        -0.278413      0.040762      0.165598
O       7.74513      9.54198      7.10391         0.108052     -0.090904     -0.134328
O       7.80993      9.69711     11.51039         0.426068     -0.284991     -0.498237
O      11.52928      1.92669      2.82742         0.154820     -0.233286     -0.309163
O      11.70619      1.94561     15.81975        -0.183151     -0.182196     -0.237237
O      11.55660     13.37795      2.72711        -0.669083      0.222231     -0.179296
O      11.66920     13.38669     15.89215        -0.269781     -0.072221     -0.297198
O      11.58171      1.76177      7.07499         0.365440      0.386581     -0.069994
O      11.59209     13.26811      7.19646        -0.566293      0.832005     -0.834100
O      11.72775      1.81323     11.38207        -1.251344     -0.121600      0.006375
O      11.74551     13.41600     11.50698        -1.085923      0.224882     -0.735290
O      11.53649      5.70048      2.83889         0.574687      0.081606     -0.540007
O      11.74693      5.68670     15.89440         0.516892      0.196064     -0.977563
O      11.58602      5.76221      7.07315         0.358032     -0.274711      0.159096
O      11.62608      5.90511     11.47718         0.589611     -0.623174     -0.326834
O      11.57830      9.63887      2.85064        -0.807891     -0.266054     -0.457690
O      11.71337      9.64622     15.95911        -0.032487     -0.227379     -1.106610
O      11.66592      9.66676      7.01177        -0.139500     -0.299317     -0.119454
O      11.65226      9.48913     11.41124        -0.897095     -0.139281      0.089262
O       2.00254      3.84205      2.84631        -0.074132     -0.454665     -0.799930
O       2.07026      3.79122     15.88286         0.034481     -0.350521     -0.464135
O       1.93267     15.28892      2.86562         0.169287      0.418063     -0.808726
O       2.00855     15.26457     15.97605         0.350024      0.940380     -0.542356
O      13.49128      3.81916      2.80142        -0.294404     -0.029387     -0.605108
O      13.72199      3.81986     15.85840        -0.224707      0.338678     -0.417003
O      13.46666     15.29466      2.76803        -0.022535      1.340663     -0.072265
O      13.54267     15.28804     15.79647         0.345918      0.367176     -0.341165
O       2.11404      3.74895      7.22654        -0.505554     -0.052740     -0.715514
O       2.00640      0.00271      7.19683         0.022954     -0.321236     -0.586730
O      13.43351      3.79051      7.04995         0.172324     -0.048673      0.225986
O      13.55339     15.26209      7.02770        -0.095215      1.419347      0.408634
O       2.13107      3.88515     11.54369        -0.077314     -0.666726     -0.502065
O       2.12696     15.30466     11.50502         0.003674      0.044122     -0.452925
O      13.53307      3.74508     11.48724        -0.109493      1.126335     -0.551839
O      13.68224     15.34039     11.50396        -0.092723     -0.359350     -0.358724
O       1.89235      7.64639      2.81011         0.176422      0.282073     -0.449593
O       2.14809      7.69409     15.73689        -0.082013     -0.523936      0.339449
O      13.45282      7.68678      2.84260        -0.174530     -1.051321     -0.430185
O      13.62421      7.73009     15.77526         0.120171     -1.048849     -0.266280
O       1.94559      7.56781      7.19725        -0.076619      0.306219     -0.672606
O      13.53064      7.64581      7.09354        -0.015951      0.040871     -0.404614
O       2.00855      7.68972     11.55841         0.187875      0.466951     -0.819099
O      13.70355      7.70442     11.53083        -0.435599     -1.921863     -0.072149
O       1.95194     11.46109      2.82951         0.130631      0.454140     -0.582356
O       2.07365     11.53266     15.86144         0.542258      0.117260     -0.136710
O      13.48724     11.52054      2.89193         0.131066      0.094395     -0.285878
O      13.48535     11.51603     15.84565         0.673512     -0.142065     -0.530660
O       2.00293     11.43652      7.14556         0.006974      0.357837     -0.281379
O      13.67208     11.49470      7.06898        -0.427137     -0.427627     -0.123549
O       2.10679     11.48499     11.46417         0.101688     -0.281821     -0.456899
O      13.56426     11.38842     11.50663        -0.111209      1.643713     -0.126754
O       5.67490      3.81998      2.61310         0.338415     -0.660983      0.441840
O       5.92884      3.87883     15.77529        -0.028972     -1.538648     -0.005147
O       5.79288     15.28965      2.90474         0.039713      0.922723     -0.795552
O       5.96974     15.27936     15.98040        -0.555777      0.750149     -1.124760
O       5.76393      3.78072      7.13146         0.597867      0.271610     -0.610297
O       6.03828     15.25459      7.04246        -0.604964      0.441958     -0.211764
O       5.88442      3.83944     11.43423        -0.075679     -0.334988      0.145766
O       5.96895     15.34218     11.40047        -0.260857     -0.479233     -0.148435
O       5.80920      7.63396      2.56880         0.145623      0.805811      0.190317
O       5.86339      7.63329     15.89980         0.058886      0.647002     -0.221500
O       5.83370      7.60669      7.20956         0.081404     -0.037548     -0.709842
O       6.06468      7.70325     11.42484        -0.465894      0.010036     -0.096352
O       5.92128     11.42999      2.59363        -0.360046      0.592029      0.266941
O       5.86846     11.55919     15.97542         0.462829     -0.020918     -0.710142
O       5.84446     11.41079      7.04077        -0.205800      0.451399     -0.057782
O       5.99183     11.47949     11.45410        -0.339209      0.643240     -0.234502
O       9.65232      3.86272      2.83023        -0.105645     -0.639884     -0.635990
O       9.80848      3.84611     15.81198        -0.134050     -0.350373     -0.324403
O       9.59793      0.02077      2.77061         0.215188     -0.219995     -0.377655
O       9.75353     15.34423     15.97475         0.249681      0.530411     -0.962136
O       9.70657      3.78457      7.22650         0.135631     -0.018050     -0.532748
O       9.71843     15.26163      7.10637        -0.514051     -0.503229     -0.660631
O       9.91799      3.77939     11.37142        -0.465574      0.116867      0.094462
O       9.74256      0.00526     11.41095        -0.066090     -1.162716      0.216443
O       9.77528      7.62980      2.64605        -0.258811     -0.065866      0.039605
O       9.94119      7.67166     15.81179        -0.530587     -0.597380     -0.347430
O       9.74413      7.66747      7.10059        -0.323442      0.067267      0.029594
O       9.61274      7.69398     11.47520         0.173805     -0.368904     -0.548254
O       9.52888     11.45507      2.52783         0.153463      0.502541      0.150191
O       9.65216     11.51293     15.65628         0.425511     -0.531176      0.617965
O       9.66929     11.47764      7.21262        -0.028901      0.726614     -0.692991
O       9.84418     11.45572     11.50568        -0.365576      1.277374     -0.548886
