  # total energy = -7883.07997960 
CRSYTAL
PRIMVEC
    15.3600000000000000    0.2300000000000000    0.0000000000000000
     0.0000000000000000   15.3600000000000000    0.0000000000000000
     0.0000000000000000    0.0000000000000000    17.440000000000000
PRESSURE
0.662647 0.434828 -0.886673 -0.171825 0.042261 -1.57227
PRIMCOORD
320 1
Pb       3.83462      3.97288      4.21577        -0.346127     -0.297601      0.535051
Pb       3.79140      3.80201      0.09632         0.332131      0.130647     -0.665050
Pb       3.91306     15.36620      4.33807        -0.714383      0.016729     -0.613842
Pb       3.87693     15.38622      0.12113         0.032844     -0.291409     -0.588413
Pb       0.09000      3.94116      4.35608        -0.220581     -0.420244     -0.411178
Pb       0.04962      3.75632      0.08178        -0.245655      0.162242     -0.570461
Pb      15.29216     15.54885      4.41542         0.597028     -0.019126     -0.807481
Pb      15.30664      0.25103     17.42586         0.111053      0.159358      0.048976
Pb       3.78507      3.70720      8.48145         0.226165      0.679579      1.232905
Pb       3.82550     15.41327      8.56277         0.130749     -0.138984      0.058448
Pb      15.33297      3.96999      8.56389         0.174901      0.463140      0.470148
Pb       0.02108     15.19364      8.64372        -0.232220      0.738624     -0.294470
Pb       3.82593      3.73890     13.10965        -0.471552      0.359445     -0.536733
Pb       3.74737      0.08588     13.12184        -0.081727     -0.563965     -0.650131
Pb      15.29876      3.99831     12.95934         0.276594      0.556869      0.370838
Pb      15.29648      0.24597     13.01302         0.447460     -0.037912     -0.062439
Pb       3.81715      7.78299      4.39018         0.089713     -0.679958     -0.608922
Pb       3.76888      7.67158     17.36446         0.402263      0.080879      0.292360
Pb      15.27585      7.98661      4.44001        -0.308877     -0.376132     -0.375622
Pb      15.27456      7.96912     17.40513         0.169614     -0.161319     -0.359507
Pb       3.86255      7.63799      8.71289         0.131238     -0.046700     -0.005439
Pb       0.00593      7.56032      8.77131         0.198163     -0.473624     -0.331240
Pb       3.67713      7.58310     13.06291         0.259805      0.520745     -0.064732
Pb      15.35668      7.86345     13.05778        -0.280029     -0.427497     -0.150351
Pb       3.79385     11.48334      4.23580         0.037789      0.356193     -0.173434
Pb       3.75207     11.56240     17.35702         0.576321     -0.020822     -0.226914
Pb      15.28371     11.70191      4.36665         0.549510      0.356027     -0.247598
Pb      15.27011     11.80893      0.00905         0.255713     -0.137535     -0.883596
Pb       3.93868     11.47048      8.69900         0.254909      0.015053     -0.118426
Pb       0.07999     11.44310      8.69840        -0.238832      0.571396     -0.011984
Pb       3.73818     11.50078     13.04881        -0.022936      0.111748     -0.045649
Pb      15.32724     11.71077     13.01875        -0.122886      0.198383      0.305917
Pb       7.66242      3.99621      4.25746         0.236734     -0.174285     -0.173663
Pb       7.66637      3.93543     17.37563        -0.153332      0.047964     -0.090960
Pb       7.70198     15.38200      4.28456         0.344827     -0.082889      0.028046
Pb       7.75099      0.21125     17.40127        -0.308527     -0.095397      0.061534
Pb       7.50386      3.86975      8.58741         0.881267      0.193866      0.664700
Pb       7.61848     15.35511      8.64419         0.103863      0.306958      0.023248
Pb       7.58093      3.92646     13.00483        -0.047160      0.201048      0.001927
Pb       7.64277      0.12263     13.08672         0.092770     -0.121160     -0.169447
Pb       7.71087      7.74227      4.32219        -0.149116      0.260527     -0.269584
Pb       7.55504      7.80375     17.34110         0.502670     -0.030266      0.263747
Pb       7.65930      7.76378      8.78816         0.205302     -0.162780     -0.182697
Pb       7.68635      7.92784     13.10188         0.074093     -0.706510     -0.814622
Pb       7.59339     11.57929      4.32674         0.384929      0.044310     -0.624356
Pb       7.61025     11.55198     17.28496         0.077108      0.031817      0.187923
Pb       7.65447     11.53212      8.78746         0.244293     -0.050752     -0.002539
Pb       7.66092     11.81352     13.19138         0.158163     -0.505787     -0.760454
Pb      11.41815      4.05617      4.47658         0.606601      0.263631     -0.778021
Pb      11.61711      4.11251      0.06984        -0.140993      0.035603     -0.351627
Pb      11.59625     15.52711      4.37617        -0.112701     -0.396597     -0.620536
Pb      11.50702      0.27592      0.01040         0.522500      0.202798     -0.552946
Pb      11.47097      3.86365      8.65733        -0.021349      0.148532      0.071750
Pb      11.41236      0.17863      8.65546         0.341708     -0.086615     -0.263830
Pb      11.52414      4.12546     13.09034         0.324417      0.019766     -0.301529
Pb      11.51047      0.27399     12.89921        -0.077846     -0.268092      0.891516
Pb      11.43105      7.93026      4.39789         0.544463     -0.412176     -0.398059
Pb      11.48442      7.88308     17.33694        -0.485504     -0.169984      0.377623
Pb      11.59518      7.81641      8.72973        -0.696894      0.420576      0.245527
Pb      11.55416      7.93694     13.01969        -0.072667     -0.459329     -0.279351
Pb      11.52915     11.42253      4.32891        -0.581774      0.674327     -0.016879
Pb      11.44615     11.83703     17.18432        -0.162157     -0.573319      0.672989
Pb      11.53086     11.64987      8.70411        -0.461772      0.114967      0.016951
Pb      11.48324     11.83433     12.93378         0.143353     -0.314387      0.483797
Ti       1.89878      1.82556      2.34149         0.167061      0.033067      0.554383
Ti       1.94553      1.94276     15.43938        -0.734513      0.184155     -0.577812
Ti       1.91034     13.38775      2.26778         0.646438      0.872514      0.370891
Ti       1.93897     13.50938     15.38455        -0.380723     -0.292043      0.588674
Ti      13.46208      2.15454      2.37276         0.594745      0.400085     -0.970076
Ti      13.48230      2.16166     15.39855         0.207195      0.283498     -0.334566
Ti      13.49453     13.56489      2.29053        -0.628363      1.310805      0.119048
Ti      13.43907     13.64583     15.37636        -0.137490      0.669941      0.589492
Ti       1.97812      1.93380      6.57771        -0.750764     -0.618899     -0.080248
Ti       2.01008     13.37945      6.65070        -0.791070      0.796972     -0.078817
Ti      13.55011      2.10203      6.54740        -0.751589     -0.270199      1.155655
Ti      13.43448     13.53205      6.56852        -0.087443      1.265067      0.575071
Ti       1.87187      1.97874     10.93178         0.117059     -0.168013      0.291512
Ti       1.90902     13.46572     10.97354         0.126918      0.443843      1.295501
Ti      13.41565      2.18678     10.98155         0.060557     -0.174753     -0.222843
Ti      13.44735     13.71764     10.99538        -0.054200     -0.949083      1.094247
Ti       1.88952      5.79780      2.27797         0.149780     -0.351987      0.353066
Ti       1.88218      5.75506     15.46835        -0.692073     -0.815597     -0.420913
Ti      13.45786      6.06526      2.32234        -0.867564     -0.917214      0.161455
Ti      13.43997      6.00160     15.41896        -0.270075     -0.569032     -0.864282
Ti       1.92813      5.81833      6.69722         0.567730     -0.108375      0.466201
Ti      13.38407      5.96734      6.74720         0.685529      0.171298      0.597888
Ti       1.90651      5.76951     10.98725        -1.443505     -1.287927     -0.971548
Ti      13.40039      5.99463     10.96945         0.670442     -0.305861      0.099634
Ti       1.82405      9.59120      2.24965         0.893583     -0.539823     -1.117184
Ti       1.89450      9.59601     15.42068         0.074419      0.340149     -0.885135
Ti      13.44318      9.86093      2.26294        -0.630335     -2.271672     -0.757316
Ti      13.38588      9.83272     15.41215         0.541271      0.047386     -0.529674
Ti       1.98136      9.63121      6.68196         0.378126     -1.054918      2.280439
Ti      13.53603      9.83568      6.85532        -1.395182     -1.829524     -1.518741
Ti       1.81906      9.57890     10.99140         0.896854      0.391847      2.237222
Ti      13.42232      9.84324     11.04862        -0.626172     -0.108288      0.894853
Ti       5.85022      1.91642      2.32375        -1.131497      0.984866     -0.395108
Ti       5.73231      1.90988     15.34388         0.499679      0.923542      0.706874
Ti       5.81131     13.50560      2.33590        -0.331229     -0.630020     -1.521777
Ti       5.77998     13.51745     15.35555        -1.035674     -0.125510     -0.175392
Ti       5.87402      1.95601      6.49445        -0.455537     -0.623873      1.306827
Ti       5.87554     13.40886      6.60629        -1.208838      0.492974     -0.134569
Ti       5.71675      1.87791     11.04278        -0.023078      0.419078      0.002506
Ti       5.72509     13.48562     11.01702         0.171677     -0.178509     -0.763416
Ti       5.77490      5.83043      2.37190        -0.063854      0.115075     -2.074234
Ti       5.69478      5.73581     15.38357         0.075897     -0.555146      0.880562
Ti       5.72204      5.80856      6.70594         0.283317      0.638943      0.136937
Ti       5.63992      5.78196     11.08305         1.189880      0.528401     -0.159349
Ti       5.75867      9.64647      2.33016        -0.435633     -0.384108     -1.032821
Ti       5.70161      9.58447     15.27705         0.630478      0.949670      1.149433
Ti       5.82043      9.64763      6.66374         0.231206     -0.894806      1.065982
Ti       5.67763      9.68432     11.10899         0.776104     -0.253432      0.406310
Ti       9.67420      1.99857      2.33813        -0.176206      0.636823      0.317189
Ti       9.62786      2.13774     15.31980         0.036401     -0.879652      0.786483
Ti       9.69606     13.57352      2.20234        -1.102498     -1.009655      0.189516
Ti       9.55167     13.70378     15.37078         0.748985     -0.664448     -0.791497
Ti       9.65812      2.04554      6.58087         0.016424     -0.379284      0.838193
Ti       9.58744     13.51053      6.65576         1.193483      0.061184      1.483074
Ti       9.56638      2.09654     11.07154        -0.196934     -0.263670     -0.802661
Ti       9.52442     13.60963     10.96881         0.004776      0.244720      0.026764
Ti       9.67448      5.93154      2.35062        -0.171214     -0.172197     -0.960995
Ti       9.58352      5.88960     15.31517         0.043489      0.501747      0.263809
Ti       9.63513      5.90056      6.72017        -1.093399      0.025488      1.864910
Ti       9.51666      5.82078     10.95049        -0.565032      1.434129      0.006814
Ti       9.53770      9.77076      2.20986        -0.037053     -0.418745     -0.326566
Ti       9.62429      9.74381     15.28669        -1.197538      0.324526      0.422355
Ti       9.62208      9.71817      6.72067         0.043667     -0.579840      0.286281
Ti       9.52680      9.78145     11.08783         0.344384     -1.179407     -0.503858
O       1.78897      1.87725      0.57750         0.395246      0.140249     -0.200380
O       1.81454      1.95728     13.62770         0.586150     -0.177620      0.653347
O       1.91838     13.42534      0.50857        -0.083498     -0.177757     -0.505935
O       1.95348     13.48526     13.63677        -0.120101      0.171036     -0.000517
O      13.57865      2.04014      0.54364        -0.357361      0.398466      1.215331
O      13.46854      2.27860     13.58346         0.118015     -0.474972      0.637818
O      13.53047     13.56174      0.51056        -0.113598      0.018087      0.448364
O      13.31849     13.70642     13.65696         0.234637     -0.176628     -1.036300
O       1.89214      1.77455      4.83434         0.209748      0.334900     -0.135126
O       1.94279     13.33287      4.88686         0.244165      0.021782      0.507477
O      13.42018      2.21779      4.80233         0.073591     -0.483428     -0.296494
O      13.34879     13.51213      4.78343         0.252258     -0.261536      0.457992
O       1.85502      1.83698      9.16083         0.339494      0.298720      0.340690
O       1.85077     13.73287      9.22139         0.313982     -1.398793      0.128277
O      13.45124      1.98415      9.22910        -0.231658      0.562340      0.193970
O      13.56810     13.72673      9.28243        -0.221819     -0.309355     -0.829331
O       1.80397      5.69818      0.51777         0.248386      0.307100      0.349823
O       1.83992      5.77031     13.68350         0.424663     -0.026371      0.240313
O      13.31370      5.99235      0.52754         0.286661      0.556317      0.780709
O      13.31663      5.91709     13.59327         0.186243      0.273032      1.318794
O       2.10031      5.78416      4.93689        -0.572689      0.119427     -0.239419
O      13.34453      6.00663      4.99332         0.306754      0.062411      0.051982
O       1.95941      5.74952      9.18285        -0.370150      0.266298      0.941507
O      13.61547      5.93906      9.18684        -0.548543      0.322303      0.610221
O       1.81875      9.53391      0.42670         0.126983      0.212909      1.273536
O       1.99572      9.60611     13.58710        -0.348831     -0.264152      1.336478
O      13.52994      9.78083      0.49831        -0.114619      0.053331      0.243154
O      13.27209      9.85411     13.66255         0.536820     -0.217185     -0.386295
O       2.01714      9.66809      4.99226        -0.309681     -0.104021     -2.063046
O      13.47318      9.60421      5.03301         0.040072      0.928422      0.520658
O       1.85446      9.65276      9.28673        -0.048008      0.045093     -1.223041
O      13.34245      9.93576      9.30717         0.558224     -0.404030     -1.390838
O       5.86935      2.01916      0.52159        -0.084942     -0.284096      1.246402
O       5.70713      1.90246     13.55965        -0.408220     -0.059455      0.000632
O       5.70970     13.52455      0.52260         0.294025      0.048109      1.031675
O       5.65613     13.60751     13.55291         0.478738     -0.262772      1.246793
O       5.90431      1.87563      4.77601        -0.430103      0.314304     -0.339642
O       5.83642     13.41408      4.79215        -0.254051      0.055782      0.964700
O       5.76639      1.85896      9.28289         0.085886     -0.013921      0.051529
O       6.01752     13.46787      9.17896        -1.026375     -0.020964      0.815912
O       5.90559      5.76030      0.52957        -0.708043      0.060091      1.485049
O       5.64011      5.70881     13.62528        -0.374212      0.224315      0.356089
O       5.54987      5.82605      4.95873         0.674947      0.011758     -0.517276
O       5.70676      5.91242      9.32162         0.013971     -0.455209      0.130993
O       5.86330      9.58790      0.55384        -0.328568      0.198429      0.879421
O       5.63475      9.53846     13.53043         0.094239      0.390826     -0.249517
O       5.81003      9.67621      4.92717        -0.127513     -0.047456     -0.961073
O       5.87998      9.76024      9.34335        -0.425859     -0.073459     -0.156565
O       9.54362      1.96066      0.58436         0.245149      0.127792      0.219574
O       9.62452      2.08933     13.59147         0.029918      0.052070     -0.675074
O       9.41501     13.50873      0.44910         0.826040      0.443604     -0.009648
O       9.64062     13.58069     13.56512        -0.457083      0.334783      0.883781
O       9.84015      2.00559      4.82854        -0.595609      0.131718     -0.156420
O       9.77375     13.45668      4.96031        -0.164284      0.035213     -0.960543
O       9.60832      2.04397      9.27733         0.028718     -0.011300      0.463064
O       9.44733     13.55192      9.17471         0.386123      0.341264      0.861537
O       9.63918      5.93419      0.59023         0.096198     -0.261745     -0.048816
O       9.71023      6.00800     13.54842        -0.408476     -0.600734      1.206353
O       9.72444      5.87803      4.97750        -0.202039      0.055868     -0.884759
O       9.41162      5.81623      9.14454         0.537291     -0.137343      1.433734
O       9.40460      9.72628      0.44303         0.400603      0.103403      0.859286
O       9.40497      9.69339     13.50898         0.938649      0.180591      0.427120
O       9.73824      9.69645      4.93682        -0.566089      0.288901     -0.282195
O       9.64859      9.62556      9.30900        -0.311436      0.655277      0.249874
O       3.82465      1.80684      2.63919         0.731297      0.315248      0.125304
O       3.85020      1.97222     15.87577        -0.229626     -0.624144     -0.198372
O       3.83741     13.49640      2.58708         0.296464     -0.226660      0.712055
O       3.85094     13.57400     15.75834        -0.221498      0.043167      0.261638
O       0.01390      1.79348      2.77814        -0.664559      0.434455      0.228905
O       0.06844      2.01538     15.86196        -0.821366     -0.212260     -0.103390
O       0.07663     13.36780      2.76485        -1.641199     -0.316006      0.025523
O      15.26357     13.50216     15.68841         1.738436      0.525527      0.310620
O       3.83269      1.85575      6.94958         1.334117      0.259984     -0.054404
O       3.84900     13.44725      7.11116         0.741382     -0.216755     -0.311723
O       0.05165      2.00546      6.92824        -0.532747     -0.120967     -0.068945
O      15.33831     13.49900      6.97367         0.499261     -0.037293      0.164541
O       3.75129      2.06165     11.37076         0.470247     -0.544155      0.235573
O       3.81834     13.30883     11.47714        -1.064168      0.618979     -0.931028
O      15.34640      2.12025     11.29696        -0.788771     -0.244874      0.483412
O      15.32398     13.69435     11.44636         0.220253      0.026530      0.060223
O       3.84240      5.85935      2.78718        -0.248675     -0.344612     -0.630499
O       3.73869      5.65559     16.00985         1.464000      0.739942     -0.659152
O      15.35907      5.89133      2.78836         0.005127      0.755429     -0.162787
O      15.31026      5.99418     15.79962        -0.034061      0.392314      0.032520
O       3.84873      5.80896      7.18806         0.169860      0.167222     -0.061587
O       0.07828      5.80174      7.12099        -0.974919     -0.286798     -0.470015
O       3.67983      5.63589     11.43431         1.770372      0.415742      0.454569
O      15.27253      6.03119     11.47686         0.667180      0.095418     -0.114804
O       3.76134      9.61810      2.66412         0.198593     -0.092190      0.187717
O       3.92030      9.56682     15.82440        -1.907996      0.205568      0.120524
O      15.32602      9.73314      2.77474         0.300779      0.372476      0.093994
O      15.35074      9.80187     15.81124         0.325970     -0.243998     -0.365569
O       3.95475      9.56768      7.12551        -1.085886      0.483594      0.077389
O       0.05308      9.62843      7.03969        -0.113062      0.080768      0.361525
O       3.79044      9.73330     11.35050        -0.672254      0.035572     -0.051436
O      15.30482      9.77709     11.48151         0.374796      0.003879     -0.127527
O       7.68670      2.01759      2.81705         0.844904      0.204343     -0.341260
O       7.68418      2.05453     15.73631         0.245482     -0.105291     -0.144550
O       7.70969     13.57570      2.74329        -0.151826     -0.524282      0.034225
O       7.69941     13.44546     15.66499        -0.843629      0.829318     -0.145480
O       7.72702      1.99925      6.99115        -0.463277      0.285522     -0.404427
O       7.69665     13.47444      6.95703         0.381193     -0.083721     -0.154892
O       7.64476      1.84946     11.58949        -0.427076      0.535451     -0.807193
O       7.61348     13.73262     11.41493         0.791756     -0.383676      0.330348
O       7.67930      5.90180      2.69652         0.157171     -0.822382      0.884437
O       7.62280      5.63839     15.75059         0.490189      0.839937     -0.532809
O       7.67251      5.70634      7.13693        -0.333088      0.328540     -0.840365
O       7.58755      5.82329     11.53390        -0.264852      0.327375     -0.351319
O       7.60481      9.61096      2.74387         0.997282      0.442901      0.284005
O       7.64049      9.76237     15.71272        -0.297891     -0.353313     -0.351113
O       7.70697      9.67821      7.15545        -0.032805      0.133285     -0.360642
O       7.66324      9.70215     11.53976        -0.658267      0.044043     -0.264490
O      11.56168      2.00394      2.59312        -0.136623     -0.233393      0.236174
O      11.67836      2.08050     15.76460        -1.585459     -0.106601      0.345582
O      11.53507     13.59290      2.55561         0.214532     -0.447760     -0.033815
O      11.50037     13.64166     15.75078        -0.476276      0.035976      0.370192
O      11.57517      1.98788      7.04604         0.071051      0.275552      0.031925
O      11.61357     13.55787      7.20031        -0.605263      0.411149     -0.455947
O      11.46359      2.27375     11.44562         0.627071     -0.442368     -0.291749
O      11.47829     13.58381     11.43661        -0.102801      0.088662     -0.815724
O      11.52949      5.92453      2.79405         0.545535      0.512113     -0.070257
O      11.42981      6.02525     15.82990         0.121821     -0.503563     -0.106074
O      11.52950      5.93855      7.30018        -0.434445     -0.125577     -0.742248
O      11.48824      5.87058     11.38384        -0.388615      0.115718     -0.497399
O      11.50476      9.73484      2.63189        -0.096502     -0.009229      0.069188
O      11.51287      9.78524     15.79178        -1.184413      0.188175     -0.095118
O      11.52655      9.68367      7.05213         0.161855      0.061414      0.622534
O      11.50863      9.75932     11.46469        -0.573726      0.274060     -0.058258
O       1.93618      3.80969      2.73799        -0.059215      0.276256     -0.045868
O       1.95195      3.82884     15.88747        -0.213272     -0.077897      0.079397
O       1.91147     15.28823      2.71303        -0.081860     -0.050180      0.165636
O       1.80645      0.03688     15.86857         0.417318     -0.532491     -0.443705
O      13.42858      4.10163      2.66197         0.187263     -0.976401      0.091829
O      13.44509      4.13718     15.92218        -0.295105     -0.551226     -0.267204
O      13.42027     15.45252      2.72765         0.347813      0.352372      0.218401
O      13.52828      0.25261     15.86741        -0.033900     -0.563046     -0.499674
O       2.00511      3.88572      7.05196        -0.439201     -0.713525     -0.517437
O       1.96210      0.03493      7.05059        -0.494287     -1.006294     -0.396501
O      13.43348      4.08035      7.09019        -0.023299     -1.034897     -0.217208
O      13.60286     15.52835      6.88385        -0.411759     -0.023467     -0.401675
O       1.77019      3.86741     11.42674         0.104545     -0.629373     -0.372022
O       1.85681     15.34285     11.47301         0.485737      0.221960     -0.062366
O      13.48510      4.10026     11.38088        -0.289965     -0.890177     -0.289025
O      13.34283     15.55618     11.42460         0.204671      1.005285     -0.032217
O       1.88521      7.64568      2.65045        -0.131261      0.807997      0.198427
O       1.95596      7.64311     15.76134        -0.013003      0.791880      0.244259
O      13.43343      7.90977      2.85410         0.333567     -0.157490     -0.498900
O      13.30293      7.92721     15.79752         0.772934     -0.626316      0.042893
O       1.92794      7.69720      7.18042         0.170174      0.760576     -0.434651
O      13.42806      7.86620      7.22421         0.532124      0.341453      0.111588
O       1.87002      7.62778     11.43555         0.186198      1.030752     -0.072732
O      13.48980      7.90139     11.46139        -0.825883      0.014404     -0.236776
O       1.86114     11.47086      2.69723         0.121049     -0.324074      0.022397
O       1.97942     11.52002     15.74287         0.057757     -0.033347      0.133675
O      13.43677     11.62622      2.66976         0.318372      1.331678      0.503501
O      13.45990     11.69185     15.82159        -0.601978      0.466099      0.110047
O       1.99091     11.48574      7.15988         0.090343      0.437037      0.080342
O      13.35557     11.66562      7.11437         0.464776      0.347577     -0.071667
O       1.73448     11.49571     11.50933         0.553162      0.466631     -0.868588
O      13.45628     11.71216     11.46842        -0.107102      0.583054     -0.057355
O       5.71717      3.89904      2.83341         0.466226     -0.119081     -0.486859
O       5.69772      3.79833     15.78175        -0.127430      1.007062     -0.019089
O       5.80904     15.42464      2.71264         0.035966     -0.339515      0.063126
O       5.80900      0.10182     15.87340        -0.072498     -0.965429     -0.298856
O       5.67656      3.87528      7.05057         0.278765     -0.953239     -0.454011
O       5.84973     15.37300      6.93487        -0.301050      0.086574     -0.040815
O       5.78597      3.84856     11.41217        -0.308596     -0.151993      0.127875
O       5.60468     15.33631     11.43863        -0.359956      1.166399      0.020672
O       5.77937      7.70551      2.79537        -0.354973      0.428018      0.092706
O       5.69294      7.75051     15.86481         0.326515     -1.527552     -0.736760
O       5.81389      7.70936      7.12163        -0.024414      0.105179     -0.146795
O       5.59503      7.76903     11.46995         0.058214     -0.699366     -0.142194
O       5.71792     11.56556      2.73244         0.386375     -0.087879     -0.020841
O       5.65364     11.56721     15.78301         0.205144      0.613938     -0.509382
O       5.83471     11.51316      7.08326        -0.427986      1.097101     -0.011622
O       5.78078     11.64296     11.45565         0.330418     -0.449338      0.236667
O       9.78835      3.99025      2.77884        -1.216839     -0.764488     -0.055946
O       9.72192      3.88364     15.87070        -0.168683      1.824976     -0.370943
O       9.58360     15.41222      2.70697         0.243793      0.895058      0.060530
O       9.62542      0.23788     15.88179        -0.053679     -0.932548     -0.460963
O       9.64810      3.92252      7.06959         0.338757     -0.272717     -0.381107
O       9.62398     15.48231      7.04373        -0.015544     -0.420614     -0.175345
O       9.37783      3.96414     11.45283         0.556421      0.005808     -0.146248
O       9.65272      0.18120     11.47793        -0.041529     -0.483771     -0.492995
O       9.53894      7.80724      2.68252         0.275171      0.662953      0.540119
O       9.47148      7.87981     15.75136         0.336894     -1.017650     -0.358707
O       9.49267      7.78263      7.08776         0.528726     -0.345512     -0.066708
O       9.44657      7.76054     11.31941         0.480231      0.115755      0.366285
O       9.53118     11.61743      2.61459         0.196046      0.067136      0.397314
O       9.50036     11.67381     15.67653         0.888444     -0.086945      0.032651
O       9.66291     11.57740      7.14467        -0.150357      0.842186     -0.222152
O       9.41308     11.72056     11.38745         0.474162      0.084477      0.052910
