  # total energy = -7880.28354508 
CRSYTAL
PRIMVEC
    15.3600000000000000    0.2300000000000000    0.0000000000000000
     0.0000000000000000   15.3600000000000000    0.0000000000000000
     0.0000000000000000    0.0000000000000000    17.440000000000000
PRESSURE
0.584119 0.28295 3.94417 0.036686 0.226523 -1.58437
PRIMCOORD
320 1
Pb       3.78673      3.84071      4.27297        -0.002364      0.462355     -0.363526
Pb       3.76896      3.94543     17.36268         0.243439     -0.163516     -0.983089
Pb       3.69757      0.06565      4.43586        -0.209709      0.163208     -0.569011
Pb       3.71017     15.37499     17.31390         0.164040     -0.036725     -0.380607
Pb       0.04940      3.77124      4.32843        -0.003086      0.250499     -0.557669
Pb      15.34410      3.99113     17.31632        -0.242777      0.226767     -0.802295
Pb      15.28682      0.36217      4.36123         0.407443     -0.639399     -0.664376
Pb      15.30733     15.51603     17.31963         0.269194      0.060379     -0.403564
Pb       3.82013      4.00544      8.67621        -0.252592     -0.320953      0.287447
Pb       3.69441      0.14019      8.81848         0.321588     -0.076506     -0.575492
Pb       0.03763      4.08414      8.87096         0.404980     -0.445676     -0.535622
Pb      15.32813      0.23920      8.76065         0.272058      0.326936     -0.835778
Pb       4.00151      3.99218     13.08121        -0.582993      0.140479     -0.477630
Pb       3.82771      0.17305     13.08385        -0.026980     -0.698766     -0.692022
Pb      15.31769      4.09080     13.04119         0.805575      0.208411     -0.161763
Pb      15.29045      0.25744     13.08095         0.469918     -0.736034     -0.366957
Pb       3.88848      7.72203      4.32580        -0.272096     -0.088026     -0.770883
Pb       3.80890      7.76279      0.01716         0.251494     -0.276462     -0.289049
Pb      15.23440      7.71555      4.27741         0.923409      0.591172     -0.484201
Pb       0.02679      7.58363     17.35979        -0.039965      0.078678     -0.549293
Pb       3.74230      7.79126      8.55757         0.120184     -0.191294     -0.452145
Pb      15.18119      8.07061      8.60395         0.808359     -0.182227     -0.324275
Pb       3.92210      7.82509     12.95910        -0.285753     -1.138994      0.141943
Pb      15.33602      7.95076     13.05917         0.268893     -0.610399     -0.475862
Pb       3.88012     11.52423      4.30852        -0.260898     -0.156330     -0.243375
Pb       3.87899     11.52928     17.41378        -0.034832      0.420230     -0.514681
Pb       0.02051     11.47282      4.28512        -0.171278      0.173898     -0.598296
Pb       0.13981     11.46625     17.43374        -0.026612      0.071669     -0.343120
Pb       3.65555     11.53979      8.64848         0.418787      0.123246     -0.391137
Pb      15.20268     11.77538      8.54173         0.478292     -0.641949     -0.143997
Pb       3.91408     11.49825     13.00801        -0.377508      0.947655     -0.710872
Pb      15.31121     11.66797     13.02000         0.437827      0.544171     -0.469854
Pb       7.55616      3.76598      4.34919         0.618732      0.657168     -0.412567
Pb       7.54568      3.97578      0.03147         0.295702      0.047066     -0.804072
Pb       7.47283      0.15794      4.40495         0.757510     -0.117576     -0.491538
Pb       7.65060      0.12527     17.43020        -0.141582     -0.482865     -0.789271
Pb       7.71229      3.96288      8.65766         0.069847      0.122628     -0.047809
Pb       7.74188      0.17800      8.77477        -0.007677     -0.158331     -0.478824
Pb       7.72929      3.86910     13.02156        -0.154263      0.000023     -0.013737
Pb       7.66653     15.28053     13.16123         0.284329      0.208506     -0.732227
Pb       7.60981      7.71039      4.39186         0.274368     -0.103937     -0.873834
Pb       7.74355      7.74686      0.19744        -0.035205      0.304701     -1.072868
Pb       7.69823      7.94896      8.56658         0.164583     -0.860276     -0.053323
Pb       7.60824      7.76734     13.04168         0.307798      0.129792     -0.417641
Pb       7.65304     11.78814      4.46357         0.130045     -0.308941     -0.608158
Pb       7.65633     11.56894      0.10342        -0.034087      0.155425     -1.056155
Pb       7.60323     11.71048      8.70525         0.032273     -0.024387     -0.684375
Pb       7.70941     11.50950     13.12583        -0.158963      0.438643     -0.736884
Pb      11.55641      3.94718      4.29757        -0.597708     -0.019375     -0.237972
Pb      11.38701      3.85456     17.40280         0.485931      0.172736     -0.409377
Pb      11.52213      0.25446      4.35210        -0.309173     -0.474924     -0.593488
Pb      11.41539     15.36651     17.42950         0.085475      0.076044     -0.641574
Pb      11.51905      3.96040      8.76840        -0.249439      0.255976     -0.890694
Pb      11.61932      0.20630      8.74628        -0.900929     -0.317762     -0.445763
Pb      11.43803      3.81143     13.07886        -0.143248      0.891523     -0.219461
Pb      11.52194     15.39446     13.08045        -0.076845     -0.782221     -0.576364
Pb      11.53918      7.80888      4.26169        -0.420833     -0.195869     -0.503393
Pb      11.53193      7.71276      0.04210         0.168641      0.346316     -0.626908
Pb      11.51818      7.88823      8.54886        -0.687963     -0.219752     -0.402582
Pb      11.36281      7.73573     13.12053         0.477933     -0.001385     -0.500339
Pb      11.59264     11.73507      4.22701        -0.279293      0.505306     -0.094389
Pb      11.55692     11.51052      0.04337        -0.249398     -0.015134     -0.495918
Pb      11.45059     11.65708      8.65033         0.183798     -0.060598     -0.722587
Pb      11.49917     11.53249     13.07115         0.288186      0.668603     -0.242626
Ti       1.85801      1.99604      2.07680         0.023765     -1.020351      2.261976
Ti       1.89239      1.96271     15.24813         0.222036     -0.058648      1.862606
Ti       1.92429     13.52882      2.41274        -0.527409     -0.161575     -0.050380
Ti       1.93057     13.41488     15.25981        -0.455552      0.389197      1.456102
Ti      13.41616      2.08210      2.19964        -0.552780      0.123799      0.661587
Ti      13.43100      2.09225     15.25453         0.003095     -0.267298      4.811882
Ti      13.46257     13.71759      2.27919        -0.051084     -0.916422      3.556546
Ti      13.46792     13.53712     15.38978        -0.383362      0.130130      0.990277
Ti       1.83897      2.04939      6.74994         0.176139     -0.679745      3.017061
Ti       1.90156     13.50884      6.65568         0.382901      0.165293      1.792321
Ti      13.40277      2.12615      6.62100        -0.094267     -0.131934      1.540205
Ti      13.38720     13.68939      6.67290        -0.025095     -0.616720     -0.358721
Ti       1.89819      1.86666     11.04978         0.671008      1.247498      0.199579
Ti       1.93773     13.42234     10.91974         0.703395     -0.264192      4.092293
Ti      13.43423      2.12614     10.99447         0.498751     -0.652758      1.333238
Ti      13.44941     13.55414     10.90618         0.049680      0.487750      3.244719
Ti       1.87588      5.73202      2.18247         1.021228      1.123890      3.658586
Ti       1.94188      5.77866     15.27514        -0.312925     -0.569654     -0.882354
Ti      13.43975      5.77866      2.23376        -0.182263      1.730590      0.704875
Ti      13.37819      5.88763     15.29156         0.872343     -0.262711      1.869563
Ti       1.90415      5.80482      6.56785        -0.214386     -0.343719      0.135301
Ti      13.41855      5.91164      6.57701        -0.290684     -0.076352      1.287249
Ti       1.94865      5.75314     11.05944         0.232179      0.118519      0.754224
Ti      13.43128      5.95771     11.03401         0.029344     -0.246612      0.499363
Ti       1.96142      9.63424      2.26838        -0.936744     -0.518877      0.628138
Ti       2.07347      9.53684     15.31667        -1.398337      0.689879      1.915303
Ti      13.41767      9.76672      2.31361         0.947770     -0.117371      1.488561
Ti      13.51155      9.71656     15.43414        -0.525053      0.168543      0.806780
Ti       1.92045      9.63892      6.44385        -0.592849     -0.611655      1.254292
Ti      13.37740      9.72830      6.47944         0.090889      1.613570      4.575834
Ti       1.92780      9.57280     11.00171        -0.153708      0.550028      0.250402
Ti      13.48880      9.73514     10.95915        -0.845039      0.729652     -0.180826
Ti       5.64169      1.97632      2.18813         0.267277      0.451236      0.003192
Ti       5.78902      2.03140     15.40258        -0.299321      0.162510      1.025172
Ti       5.70297     13.55788      2.33657         0.165390     -0.271268     -0.470387
Ti       5.69584     13.54826     15.25891         0.921915     -0.951295      2.902016
Ti       5.68333      2.01247      6.74502         0.020121     -0.497005      1.855429
Ti       5.74389     13.58303      6.69750        -0.525198     -0.132166      1.398479
Ti       5.79690      1.97217     11.05774         0.160893     -0.046324      0.350426
Ti       5.76570     13.55687     10.94299        -0.875602     -0.638032      2.593542
Ti       5.79420      5.79749      2.25128         0.071509      1.084570      5.328108
Ti       5.72628      5.89009     15.36257         0.349573      0.092799      2.736607
Ti       5.75669      5.78999      6.59684         0.176988      1.311997      1.723876
Ti       5.87414      5.87755     10.96084        -0.663325     -0.324535      2.276867
Ti       5.79873      9.73181      2.24541        -0.160301     -0.811944      2.625353
Ti       5.78657      9.63370     15.42729         1.098795      0.096359      3.520148
Ti       5.79780      9.72537      6.58673        -0.845325     -0.529183     -0.094604
Ti       5.71399      9.68456     10.90841         1.711623      0.714292      1.501878
Ti       9.52332      2.00993      2.29176         0.797997      0.168191      1.458784
Ti       9.57547      2.00274     15.38889        -0.615683      0.208332      2.063342
Ti       9.50384     13.57928      2.35315         1.019854     -0.036500      0.884837
Ti       9.56415     13.43980     15.41315        -0.425089      0.749924     -1.250976
Ti       9.53330      2.02091      6.66007         1.315655     -0.759814      0.752084
Ti       9.58172     13.59170      6.56975         0.173297      0.048270      2.344732
Ti       9.60268      1.95990     11.10402        -0.941752     -0.498688      0.262121
Ti       9.58500     13.47115     10.94978         0.236036      0.692621      2.059836
Ti       9.69761      5.83885      2.24020        -1.552279      0.144337      3.392490
Ti       9.58662      5.89856     15.36380        -0.544371     -0.721865     -0.097368
Ti       9.58261      5.86509      6.53213        -0.169644      0.549426      1.729794
Ti       9.66237      5.88550     10.99777        -0.200922     -0.120511      0.548807
Ti       9.59696      9.71139      2.34661        -0.284432      0.248665      0.268573
Ti       9.59680      9.64676     15.38697        -0.199711      0.580166      2.934758
Ti       9.56503      9.79048      6.42395         0.437369     -0.578540      1.195401
Ti       9.66377      9.72393     10.99256        -0.497778     -0.743730      2.189701
O       1.96177      1.94644      0.36989         0.016222      0.172498     -1.148798
O       1.78714      1.85101     13.54126         0.302529      0.060861     -1.507753
O       1.92448     13.48096      0.68246         0.245589      0.202542     -1.058586
O       1.91350     13.42294     13.56321        -0.022025      0.076481     -0.818823
O      13.27107      2.13161      0.47429         0.408623     -0.264971     -0.318331
O      13.60528      2.16316     13.60922        -0.336314     -0.060362     -3.109554
O      13.48725     13.72102      0.61630        -0.249632     -0.189725     -3.035092
O      13.44095     13.53025     13.68779         0.071376     -0.163183     -1.302208
O       1.82659      1.97001      5.06265         0.025232      0.094407     -2.236125
O       1.87700     13.68323      4.94700         0.091811     -0.106509     -1.640910
O      13.37340      2.06184      4.85839         0.312436      0.035987     -0.041733
O      13.37296     13.70512      4.90369         0.286482      0.364620      0.388958
O       1.98649      2.01828      9.28272        -0.261986     -0.267764      0.013640
O       2.11803     13.37427      9.24890        -0.281635      0.093512     -2.692484
O      13.38225      2.03951      9.25090        -0.032699      0.316156      0.153228
O      13.26685     13.58710      9.21071         0.647200      0.000738     -1.538756
O       1.92339      5.64491      0.48283        -0.053880      0.216654     -1.288258
O       1.93557      5.77457     13.48841        -0.129721      0.366261      0.622874
O      13.34462      5.82226      0.51441         0.324075     -0.014410     -0.814348
O      13.54517      6.10315     13.59423        -0.286674     -0.394285     -1.579021
O       1.87251      5.75989      4.80024        -0.009270     -0.535537      0.408510
O      13.45024      6.02519      4.85838        -0.086368     -0.323216     -0.942721
O       1.99135      5.73411      9.28604        -0.114053      0.008112     -0.437093
O      13.36712      5.73740      9.27509        -0.183672      0.575587     -0.345161
O       2.05740      9.67719      0.47860        -0.214912     -0.157550      0.005075
O       1.77910      9.62596     13.61150         0.437237     -0.344255     -0.672251
O      13.39634      9.80758      0.61677         0.085282     -0.037059     -2.230301
O      13.58849      9.68136     13.69015         0.052524      0.220499     -0.410797
O       1.98212      9.64120      4.71775        -0.396084      0.140329     -0.281823
O      13.52361      9.77035      4.85255        -0.109796     -0.103054     -4.303554
O       1.97576      9.62195      9.26209        -0.056204     -0.188121     -0.587368
O      13.41688      9.88217      9.18658         0.059314     -0.433449      0.098600
O       5.71981      2.09101      0.41319        -0.211556     -0.097381      0.732708
O       5.97983      2.03940     13.69277        -0.205304     -0.150118     -1.419206
O       5.69662     13.46020      0.59352         0.000730      0.170599     -0.024353
O       5.89156     13.43286     13.56966        -0.342695      0.107793     -1.195084
O       5.70766      2.05927      5.02413         0.171331     -0.310317     -1.286642
O       5.80464     13.58429      4.95296        -0.289785      0.116073     -1.169378
O       5.74562      2.04934      9.32678         0.391634     -0.142590     -0.999332
O       5.71340     13.49442      9.25076         0.127202     -0.027358     -2.153825
O       5.59182      5.69298      0.63134         0.027431      0.068557     -3.803368
O       5.82219      5.90694     13.68456         0.241225     -0.019280     -2.719995
O       5.81830      5.88501      4.88828        -0.044154     -0.362595     -1.144822
O       5.78149      5.82175      9.28063        -0.266948      0.145704     -1.599492
O       5.77005      9.64350      0.55037        -0.603240      0.105084     -2.228689
O       5.92217      9.68903     13.77483         0.004363     -0.187915     -3.769508
O       5.75258      9.71776      4.80150         0.144309      0.289123      0.688098
O       5.77854      9.59415      9.19687        -0.240810      0.107040     -1.101466
O       9.67625      2.04143      0.55880        -0.314080     -0.224566     -0.684652
O       9.46095      2.05118     13.70609         0.207039     -0.046964     -2.448242
O       9.51105     13.69980      0.61445         0.043604     -0.346434     -1.170478
O       9.58634     13.47688     13.56379        -0.172519     -0.157941      1.332646
O       9.55375      1.97426      4.91569        -0.106778      0.175671     -0.649972
O       9.43031     13.61009      4.87828         0.284747      0.113925     -1.959955
O       9.52984      1.79192      9.37794         0.301831      0.779483     -1.002915
O       9.70035     13.51693      9.21898        -0.531202     -0.397636     -0.246759
O       9.68843      5.79289      0.55061         0.094249      0.418173     -2.469887
O       9.60088      5.87927     13.55131        -0.123752      0.374197      0.944612
O       9.52684      5.86515      4.82083         0.149442     -0.116334     -0.334775
O       9.76912      5.85326      9.25906        -0.046894     -0.103758     -0.324390
O       9.70088      9.76760      0.57434         0.068358     -0.231246     -0.310624
O       9.56618      9.69014     13.68728         0.033421     -0.083641     -2.116697
O       9.45071      9.76664      4.70095         0.204278      0.015939     -0.656110
O       9.66078      9.85488      9.31684         0.085008     -0.050356     -2.287334
O       3.78353      2.01835      2.64556         0.424123     -0.198268     -0.043818
O       3.84964      1.95913     15.55434        -0.299127     -0.040129      0.386504
O       3.84608     13.68319      2.78685        -0.348650     -0.414313      0.432291
O       3.77938     13.56102     15.77997         0.959894      0.002840     -0.212296
O      15.32168      2.17285      2.54351        -0.003486      0.704728      0.234242
O      15.33389      2.20593     15.75647         0.182352     -0.519336      0.059445
O       0.03074     13.44867      2.72674        -0.807248      0.166236      0.409147
O       0.00088     13.31058     15.78457         0.534400      0.139875      0.217866
O       3.80580      1.95926      7.13009         0.192820      0.506234     -0.152655
O       3.79860     13.48434      7.04874         0.318947     -0.145260     -0.135833
O      15.33267      2.12352      7.21142        -0.664307      0.202168     -0.537693
O       0.06014     13.49045      7.18224        -1.165990     -0.152308     -0.140983
O       3.91350      1.83688     11.38431        -0.232557      0.604071      0.719726
O       3.81750     13.46228     11.53237         0.754016      0.221429     -0.166612
O       0.04002      1.91998     11.41326        -0.774093     -0.310209     -0.217674
O       0.11235     13.46338     11.33763        -1.524903     -0.222995     -0.237997
O       3.83929      5.88338      2.75151         0.150546     -1.076762     -0.338976
O       3.82004      5.84985     15.71699         0.030551     -0.411696      0.395077
O      15.34085      5.86870      2.77132         0.114045     -0.025136     -0.724060
O       0.05100      5.65681     15.67154        -0.604173      0.607018      0.630101
O       3.84016      5.78656      7.05704        -0.056640     -0.045682     -0.306832
O      15.31476      5.94477      6.97544        -0.621412     -0.023774      0.333081
O       3.88314      5.84548     11.62898         0.781602      0.148074     -0.914355
O       0.00881      5.70578     11.35024        -0.410931      0.055492      0.068046
O       3.74268      9.67143      2.71299         1.673469      0.050798      0.085361
O       3.89605      9.48322     15.80773        -0.915915      0.601361     -0.276210
O       0.06244      9.60223      2.72876        -0.845054      0.057380     -0.240161
O       0.07732      9.59544     15.95576        -0.236005     -0.532044     -0.567772
O       3.75588      9.58583      6.84079         0.676335      0.085087      0.553419
O      15.29363      9.77492      7.03127         0.456468      0.249306     -0.186258
O       3.90323      9.61560     11.42435        -0.733831      0.009743     -0.031987
O       0.01586      9.56026     11.32816        -0.070842      0.109620      0.433675
O       7.64110      1.99932      2.70476        -0.401675      0.435797     -0.116396
O       7.65764      2.22061     15.91514         0.601224     -0.855291      0.077725
O       7.63584     13.44146      2.77391        -0.645042      0.498255     -0.053585
O       7.58450     13.41747     15.80445         0.277070      0.315235      0.051963
O       7.73137      2.02271      7.11188        -1.585227     -0.072675      0.273500
O       7.66106     13.51001      6.97282        -0.518718     -0.334851      0.655445
O       7.71564      1.96489     11.45999        -0.163631      0.148752      0.226064
O       7.64830     13.42972     11.35352         1.302536     -0.138159     -0.225133
O       7.76126      5.96402      2.66565        -1.147993     -0.606001     -0.437527
O       7.65701      5.99460     15.98639         0.753338     -0.828659     -0.449504
O       7.66513      5.98831      7.08061         0.261247     -0.777059     -0.134691
O       7.75138      6.02286     11.31018        -0.314497     -0.443230      0.183619
O       7.66791      9.73029      2.41306         0.209712      0.354089      0.607946
O       7.70391      9.57878     15.92090         0.173397      0.427827      0.085664
O       7.68925      9.63624      6.99022        -0.404925      0.802780     -0.101625
O       7.74584      9.62893     11.30879        -0.452348      0.302705      0.461788
O      11.51911      2.15320      2.69286        -0.453670     -0.853623      0.277224
O      11.47989      2.04232     15.66343         0.491941     -0.274700     -0.029337
O      11.47690     13.75126      2.74507         0.527872     -0.435648     -0.114238
O      11.44274     13.63789     15.71965         0.650510     -0.125128      0.604517
O      11.47291      1.96018      7.09680         0.469217      0.193186     -0.144566
O      11.53920     13.72707      7.06665        -0.469596     -0.558048     -0.350055
O      11.51312      2.04336     11.53304         0.789646      0.025835     -0.158931
O      11.56612     13.60128     11.38645        -0.260893     -0.102051      0.204857
O      11.53848      5.88965      2.69453         0.473697      0.457102      0.296181
O      11.50992      5.83131     15.65337        -0.257424      0.479438      0.148527
O      11.42923      6.02615      6.94510         1.047432     -0.488336      0.145233
O      11.55742      5.87166     11.54302         0.437975     -0.488985      0.009101
O      11.53273      9.77066      2.62021         0.228915     -0.178758      0.808005
O      11.51564      9.70340     15.74777         0.776311      0.280024      0.296910
O      11.45722      9.74576      6.92141         0.349222      0.254166     -0.114010
O      11.61483      9.81035     11.42975        -0.037190     -0.292598      0.276458
O       1.96478      3.79608      2.71739        -0.440363      0.788456     -0.182308
O       1.93825      3.87896     15.62018         0.235647     -0.575693      0.468659
O       1.78062      0.16819      2.71690         0.767226     -0.439080      0.246686
O       1.84972      0.05553     15.73776         0.062061     -0.565718      0.069493
O      13.36013      4.00931      2.73974         0.494280     -0.801862      0.084272
O      13.54466      3.99575     15.81822        -1.058376     -0.022842     -0.770041
O      13.50765      0.22850      2.66983        -0.331816      0.293080      0.219979
O      13.51992     15.46460     15.70605        -0.225440      0.834019      0.047371
O       1.82982      3.94165      7.19279         0.453010     -0.663630     -0.438447
O       1.93846      0.02964      7.18091        -0.194581      0.369331      0.084316
O      13.27563      4.01909      6.93707         0.140488     -0.118345      0.163164
O      13.43733      0.22621      7.19355         0.532310     -0.097241     -0.438713
O       1.99281      3.91041     11.48077         0.073083     -1.213837     -0.028118
O       2.01673     15.38550     11.36237        -0.309873     -0.224826     -0.058814
O      13.53773      3.97650     11.43974        -0.802450      0.048513     -0.096871
O      13.51324     15.49203     11.62353        -0.583507      0.561779     -1.133823
O       1.96204      7.62290      2.66354        -0.716176      0.209369     -0.661607
O       1.94560      7.62866     15.80398        -0.399091      1.192455      0.055498
O      13.43102      7.83354      2.58900         0.139840     -0.245962      0.470869
O      13.40261      7.73325     15.83728         0.526522      1.334754      0.406007
O       1.83705      7.62246      6.86409         0.208884      1.256762      0.636372
O      13.41547      7.90061      6.98410        -0.142052     -1.091820      0.288853
O       1.93081      7.68688     11.31538         0.218006      0.382510      0.619966
O      13.48898      7.87388     11.26108        -0.077876     -0.529982      0.190914
O       1.87924     11.59386      2.72419         0.555584     -0.041120      0.171811
O       2.09385     11.57696     15.71318        -0.356572     -1.495936      0.267710
O      13.41018     11.74292      2.77814         0.209987     -0.022311     -0.334239
O      13.45985     11.63725     15.91153        -0.266652     -0.261516     -0.195027
O       1.88472     11.45721      7.02158        -0.185838      0.948791     -0.254824
O      13.41567     11.72214      6.96558         0.056201      0.274281      0.130647
O       1.96896     11.50096     11.44072         0.014034     -0.345031     -0.037838
O      13.48780     11.72360     11.41912         0.244769     -0.342443     -0.042120
O       5.78322      3.91088      2.82904        -0.213168     -0.348983     -0.594304
O       5.76033      3.99860     15.79209        -0.222821     -0.466479      0.257236
O       5.72484      0.14950      2.61327         0.423886     -0.188062      0.414830
O       5.78749     15.42381     15.75855         0.169737      0.250556     -0.106026
O       5.80409      3.93007      7.10584         0.125245     -0.087140     -0.110480
O       5.74372      0.09385      7.18462         0.131987      0.187622     -0.454397
O       5.85472      3.91966     11.48955        -0.164503      0.516172     -0.223398
O       5.88972     15.37576     11.50624        -0.466325      0.677369     -0.122311
O       5.77889      7.81938      2.72852        -0.199523     -0.521852     -0.248719
O       5.72161      7.72197     15.80473         0.090355      0.282493      0.592583
O       5.68962      7.78917      7.00412         0.256806     -0.064139      0.134203
O       5.81686      7.81218     11.52793        -0.388895     -0.405947     -0.435263
O       5.66027     11.61212      2.72045        -0.072724      0.374532      0.047576
O       5.72906     11.53736     15.74889        -0.511016      0.578087      0.423877
O       5.70428     11.58322      7.11478         0.330660     -0.104194     -0.283257
O       5.71056     11.60844     11.37192         0.297917     -1.157122      0.053899
O       9.66240      3.99313      2.73355        -0.539434     -0.947575     -0.144214
O       9.68298      3.97930     15.73375        -0.712278      0.289464      0.094969
O       9.49984     15.46079      2.73905         0.043287      1.124444      0.041556
O       9.38821     15.41094     15.75569         0.380820      0.801439      0.318375
O       9.61374      3.87639      7.14377        -0.043498      1.259403     -0.300208
O       9.49072     15.38823      7.13090         0.142440      1.207134     -0.158110
O       9.55249      3.90745     11.43843         0.548581      0.505699      0.031828
O       9.60860     15.42833     11.47148         0.013200     -0.760812      0.293456
O       9.56274      7.80959      2.83204         0.707127      0.094130     -0.708840
O       9.64007      7.81008     15.91162         0.259460     -0.968634     -0.267385
O       9.61681      7.88293      6.92656        -0.222730     -0.431088      0.191056
O       9.82248      7.77009     11.36077        -0.435154      0.599693      0.140784
O       9.69173     11.66107      2.76282        -0.419976      0.210528     -0.218208
O       9.57189     11.63541     15.86218         0.107152     -0.940743      0.076422
O       9.54730     11.65529      6.91777         0.198572     -0.056277      0.336011
O       9.71383     11.58183     11.55144        -0.487728      0.631374     -0.515908
