  # total energy = -7881.92746472 
CRSYTAL
PRIMVEC
    15.3600000000000000    0.2300000000000000    0.0000000000000000
     0.0000000000000000   15.3600000000000000    0.0000000000000000
     0.0000000000000000    0.0000000000000000    17.440000000000000
PRESSURE
0.20484 0.12115 -2.61046 -0.257041 -0.076914 -1.58045
PRIMCOORD
320 1
Pb       3.82731      3.75911      4.46471        -0.226812      0.314719     -0.954230
Pb       3.85236      3.98373     17.31984        -0.334020     -0.077233      0.684053
Pb       3.70954     15.36832      4.29823         0.304919     -0.095953     -0.133938
Pb       3.74758      0.10847     17.35547         0.319106     -0.646088     -0.614674
Pb      15.22103      3.92246      4.27219         0.892048      0.450178      0.133897
Pb      15.24889      4.09825     17.26912         0.719899      0.135862      0.429348
Pb      15.34536     15.53858      4.32629        -0.091908     -0.035565     -0.425195
Pb      15.32002     15.58479     17.43208        -0.171549     -0.358088     -0.325698
Pb       3.87565      3.97073      8.77976        -0.601723      0.081292     -0.910906
Pb       3.82297     15.32924      8.77501        -0.535037      0.311321     -0.642691
Pb       0.03462      3.90362      8.76506        -0.045345     -0.079158     -0.566306
Pb      15.35878      0.32203      8.68367         0.182459      0.094694     -0.426480
Pb       3.88367      3.98375     13.01904        -0.108856     -0.106975      0.195037
Pb       3.86090      0.13048     13.06259         0.144772     -0.171737     -0.077053
Pb       0.06951      3.85946     13.08545        -0.568411     -0.003014     -0.231442
Pb       0.03150      0.01152     13.07414        -0.215402     -0.303736      0.013293
Pb       3.78738      7.69555      4.30899        -0.207068     -0.196591     -0.257037
Pb       3.82512      7.87846     17.35565        -0.048537     -0.261914      1.001193
Pb      15.32458      7.82583      4.21315         0.301121      0.029425      0.563346
Pb       0.02696      7.74885     17.36329        -0.083886     -0.539530      0.338422
Pb       3.72527      7.79277      8.64252         0.151138     -0.274184      0.029388
Pb      15.32005      8.00781      8.61401        -0.142951     -0.727489     -0.007223
Pb       3.94141      7.92577     13.06168        -0.585138     -0.459005     -0.557099
Pb      15.30550      7.90879     12.99588         0.153686      0.046678     -0.151165
Pb       3.93186     11.59827      4.43857        -0.519189      0.039841     -0.474156
Pb       3.82116     11.61396     17.37440         0.148908      0.065034      0.258393
Pb      15.31780     11.74910      4.28811         0.042145     -0.074012      0.397534
Pb       0.07706     11.40364     17.42761        -0.499002      0.338818     -0.131220
Pb       3.60975     11.58089      8.68177         0.755819     -0.223043     -0.449117
Pb      15.17753     11.64512      8.67963         0.163086      0.538266     -0.241726
Pb       3.83443     11.60661     13.14615         0.171787     -0.253167     -0.906583
Pb       0.03498     11.47355     13.07647        -0.439349     -0.185074     -0.267411
Pb       7.56147      3.81512      4.44492         0.293291     -0.029067     -0.572987
Pb       7.63169      3.89917     17.43673         0.378975      0.596711      0.203697
Pb       7.49200      0.20819      4.40351         0.322322     -0.125970      0.036921
Pb       7.56777      0.12410     17.41573        -0.008577     -0.896258     -0.348701
Pb       7.66969      4.02551      8.80768         0.225013     -0.281141     -1.432740
Pb       7.55711      0.15812      8.80519         0.615265     -0.277763     -0.792067
Pb       7.71756      3.87251     13.05676         0.192341      0.271115     -0.220367
Pb       7.64215     15.46995     13.08665         0.034882     -0.397653     -0.455847
Pb       7.69117      7.88316      4.29077        -0.353104     -0.589746     -0.156393
Pb       7.76165      7.88339      0.00590        -0.265073     -0.384151     -0.092570
Pb       7.68192      7.71879      8.66121         0.213175      0.561673     -0.729548
Pb       7.66279      7.65425     13.01516        -0.080024      0.117805     -0.181736
Pb       7.74766     11.62128      4.26693        -0.215934      0.038098      0.268169
Pb       7.78738     11.67970      0.01310        -0.082969      0.142281     -0.262687
Pb       7.50719     11.64404      8.71178         0.537306     -0.190418     -0.642675
Pb       7.66686     11.38427     12.93334        -0.261580      1.096052      0.262481
Pb      11.51304      3.93577      4.25642        -0.344561      0.283330     -0.154722
Pb      11.43400      3.89896     17.29271        -0.141247      0.374836      0.441592
Pb      11.38110      0.22411      4.26847         0.635211     -0.354070      0.368863
Pb      11.52974     15.43383     17.42696         0.340737     -0.359557     -0.445908
Pb      11.50363      4.08252      8.69662         0.236906     -0.229865     -0.775793
Pb      11.59756     15.43456      8.73767        -0.095229     -0.070042     -0.523236
Pb      11.59836      3.92296     13.03284        -0.119366     -0.272297     -0.514099
Pb      11.53546     15.35387     13.15566        -0.194289      0.248429     -0.407296
Pb      11.49104      7.80041      4.26159         0.474782      0.064717     -0.108686
Pb      11.61771      7.86740     17.39377        -0.293421      0.074604      0.274473
Pb      11.41593      7.82074      8.68222         0.183059      0.072840     -0.693824
Pb      11.51059      7.69651     13.05248        -0.057758      0.488731      0.161652
Pb      11.44617     11.83742      4.44398         0.349345     -0.383545     -0.608290
Pb      11.62246     11.53732      0.09949        -0.299264      0.637561     -0.795008
Pb      11.42283     11.61401      8.66783        -0.329647      0.281019     -0.345293
Pb      11.53619     11.54280     13.18597         0.246172      0.089314     -0.351597
Ti       1.94890      1.96695      2.14850        -0.026312      0.426683      1.501461
Ti       1.92531      1.92339     15.36857        -0.327974      0.067720      0.977110
Ti       1.86326     13.44642      2.32621         0.498336     -0.743102      0.213973
Ti       1.85791     13.39140     15.30844         0.244306      0.203621      2.272997
Ti      13.48371      2.07097      2.22812        -0.170101     -1.038732     -1.126104
Ti      13.45644      2.11067     15.35185         0.748587     -0.673052     -0.664765
Ti      13.40321     13.60258      2.31445        -0.038455      0.267596     -0.263379
Ti      13.43840     13.61474     15.39996        -0.512314     -0.964575      1.040876
Ti       1.90010      1.97422      6.68669        -0.476541      0.359161      0.723903
Ti       1.88523     13.46652      6.65975        -0.148774      0.770409     -1.084524
Ti      13.38643      2.15264      6.56698         0.783643      0.186632      0.982911
Ti      13.52701     13.70758      6.65771        -1.221058     -0.541406     -1.625555
Ti       1.90788      1.95892     11.06746         0.067676      0.155112     -1.736567
Ti       1.90563     13.49621     10.91385        -0.156699     -0.568907      0.410453
Ti      13.55125      2.05032     11.03508        -1.327876      0.816120      0.206454
Ti      13.42793     13.62835     11.18615         0.404187     -0.884129     -0.794675
Ti       1.89141      5.71978      2.29713         0.602226      0.102628      1.223222
Ti       1.87225      5.77192     15.34042        -0.541028     -0.114344      0.103369
Ti      13.45799      5.90532      2.21402        -0.579768      0.916268     -0.144077
Ti      13.34993      5.96341     15.33878         1.483651      0.407249     -0.997680
Ti       1.90446      5.78370      6.65319         0.277527     -0.025468     -1.169104
Ti      13.45697      5.97906      6.63247        -0.580596     -0.285884     -0.554559
Ti       1.90238      5.80817     11.08285        -0.880890      1.026542     -1.958718
Ti      13.36458      5.98016     11.08778         1.423672     -0.756747     -1.713889
Ti       1.93555      9.64059      2.37866         0.606919     -0.520637     -0.422555
Ti       1.91670      9.54599     15.34920        -0.731346      0.526350     -0.509488
Ti      13.46319      9.79118      2.28023        -0.654807     -0.544021      0.218845
Ti      13.39774      9.72243     15.39891         0.383702      1.410604      0.053183
Ti       1.86301      9.62874      6.61510         0.449768     -0.004388     -1.671951
Ti      13.38750      9.83684      6.50609        -0.025926     -0.506200     -0.711372
Ti       1.88599      9.67299     11.03937         0.204607     -1.192246      0.350800
Ti      13.37678      9.78834     10.97052         0.811103      0.290057      0.295832
Ti       5.72851      1.91470      2.21891         0.054055      0.989831      1.887836
Ti       5.79158      2.03968     15.42135        -0.796550     -1.268585     -0.834796
Ti       5.78750     13.50006      2.34971        -0.943390     -0.329552     -1.294596
Ti       5.75561     13.43257     15.25071        -0.419012      1.038451      0.650659
Ti       5.70868      1.91205      6.81876         0.326458      1.050891     -0.953008
Ti       5.74698     13.51374      6.69148         0.040514     -0.446882     -0.436025
Ti       5.76790      1.97738     11.03547        -0.297867     -0.670558      0.185820
Ti       5.77921     13.47098     10.95190         0.288915     -0.295788      0.476858
Ti       5.83284      5.72412      2.40651        -0.768739      0.192462     -0.618078
Ti       5.73240      5.94278     15.42689         0.335353     -0.484965     -0.593485
Ti       5.75044      5.83015      6.61231         0.026806     -0.763042      0.106390
Ti       5.66436      5.81846     10.97140         0.220676      1.090956      1.186136
Ti       5.75450      9.64224      2.32170        -1.852015     -0.146932     -0.004960
Ti       5.79263      9.70715     15.33730        -0.399288      0.609013      0.456256
Ti       5.69821      9.62215      6.63669         0.212636      0.823544     -0.625540
Ti       5.76080      9.67614     10.95316        -0.622549     -0.224347     -0.262451
Ti       9.61726      2.01407      2.30102        -0.665512      0.806819      1.571271
Ti       9.61633      1.94600     15.34226        -0.149012     -0.023441     -0.011322
Ti       9.59558     13.59531      2.34594         0.067892     -0.572042      1.330070
Ti       9.55424     13.50937     15.27273         0.906918     -0.561987      0.407457
Ti       9.64780      1.94591      6.63378        -1.040512      1.059860     -0.573403
Ti       9.61668     13.56755      6.58377        -0.302839     -0.414889      0.576708
Ti       9.63909      1.95036     10.98758         0.539804      0.196370     -0.034181
Ti       9.62620     13.49726     11.08807        -0.539556     -0.366239     -0.411780
Ti       9.58488      5.89157      2.35342        -0.610126     -1.212866     -0.193008
Ti       9.60790      5.90143     15.33076        -0.711440     -0.299602     -0.523928
Ti       9.63893      5.88507      6.55966        -0.320584     -0.457553      0.480982
Ti       9.60760      5.85371     11.05016        -0.669050     -0.127741      1.724212
Ti       9.59603      9.72333      2.28737         0.854320      0.263237      0.159747
Ti       9.56230      9.71016     15.30001         0.911551      0.763359      1.018687
Ti       9.59964      9.71991      6.51796        -0.661303     -0.123252     -0.275103
Ti       9.59774      9.69116     11.05336         0.047578     -0.030697     -1.271575
O       2.03341      2.04813      0.39712        -0.080633     -0.491961     -0.009122
O       1.90768      1.99207     13.62482        -0.031219     -0.141845     -0.891416
O       1.73429     13.32806      0.55908         0.551149      0.218571      0.376797
O       1.92509     13.26501     13.59514        -0.111722      0.433631     -0.870462
O      13.42771      1.86593      0.38561        -0.135644      0.971043      1.358978
O      13.52487      2.15910     13.52470        -0.246815     -0.279631      1.491714
O      13.36230     13.64634      0.52526         0.032176      0.135383      0.302386
O      13.43514     13.59893     13.63426        -0.132403     -0.053522     -0.650723
O       1.82817      2.11002      4.91717         0.380836     -0.641729      0.518537
O       1.84152     13.58229      4.82296        -0.003066      0.023213      1.144324
O      13.47253      2.12361      4.78602        -0.168506      0.089622      0.150610
O      13.50785     13.58010      4.84606        -0.107190      0.435876      0.989763
O       1.82305      1.99236      9.22232         0.006525     -0.279531      1.864784
O       1.88037     13.51824      9.13206        -0.231826     -0.361475      0.814602
O      13.54466      1.97719      9.24526        -0.091650      0.215071      1.131305
O      13.39163     13.73654      9.41930         0.069176     -0.221974     -0.684797
O       1.72252      5.73842      0.57265         0.203289     -0.078512     -0.705894
O       1.84600      5.69880     13.54772         0.347075      0.149241      0.515070
O      13.41548      6.04578      0.40977         0.013516     -0.441593      0.856450
O      13.39516      5.99874     13.46837        -0.248612     -0.252419      1.217837
O       1.90186      5.81603      4.83890         0.038381     -0.464240      1.251528
O      13.37566      5.86223      4.85844        -0.048952      0.003033      0.280399
O       2.01667      5.86415      9.21864        -0.406290     -0.259914      1.245540
O      13.40345      5.98154      9.26473        -0.302407     -0.138768      0.578609
O       1.88254      9.51923      0.56805         0.285139      0.306275      0.222604
O       1.89291      9.63412     13.55107         0.252570     -0.196631      0.753317
O      13.30502      9.69382      0.45351         0.464233     -0.025052      0.844905
O      13.48783      9.77759     13.64136        -0.642923      0.026407     -0.582045
O       1.94298      9.59018      4.83103         0.008906      0.058006      0.833620
O      13.43003      9.93082      4.70710        -0.360895     -0.545625      1.333431
O       1.86514      9.66484      9.24275        -0.138221      0.022641     -0.201176
O      13.52599      9.78410      9.16560        -0.247994      0.003028      0.516048
O       5.71167      2.01494      0.46948        -0.004022     -0.499574     -1.041822
O       5.84196      1.99289     13.62613        -0.343764      0.031546      0.057790
O       5.75849     13.47941      0.49831         0.205446      0.422196      1.661591
O       5.57295     13.35931     13.46833         0.398651      0.337509      0.712437
O       5.77597      1.90803      5.01319        -0.490190      0.236853      0.311831
O       5.71909     13.61834      4.89139        -0.035905     -0.280468      0.915142
O       5.83380      1.82906      9.25391        -0.116460      0.483606      0.630339
O       5.95543     13.47014      9.13544        -0.482779      0.160277      0.800933
O       5.99142      5.67835      0.58946        -0.425315      0.304452      0.150590
O       5.64156      5.95062     13.64475        -0.031410     -0.304996      0.459796
O       5.84460      5.64302      4.83273        -0.537839      0.383973      0.693631
O       5.64733      5.76738      9.23452         0.575640      0.387132      0.156046
O       5.58765      9.60188      0.54553         0.555008      0.234368      0.238461
O       5.61013      9.78429     13.53545         0.666455     -0.459387      1.343544
O       5.54078      9.82883      4.81324         0.957967     -0.841945      1.550288
O       5.72472      9.59295      9.18943         0.349713      0.408901     -0.150289
O       9.56886      2.12206      0.57860         0.226679     -0.339178     -1.601849
O       9.60546      1.96888     13.58152        -0.183483      0.002436      0.451535
O       9.54430     13.41499      0.64689        -0.103186      0.643322     -1.404355
O       9.61379     13.49885     13.49230         0.134053     -0.065953      0.129063
O       9.59429      1.94199      4.78545         0.280270      0.180132      1.523311
O       9.61366     13.50263      4.80361         0.208559      0.130251      0.567148
O       9.45654      1.88203      9.20246         0.291691      0.396505      0.833598
O       9.78326     13.32911      9.30329        -0.495000      0.610119      0.381742
O       9.51867      5.70507      0.57089        -0.105443      0.444347     -0.199425
O       9.66102      5.88753     13.52082        -0.133972     -0.038093      1.565585
O       9.81315      5.91391      4.79660        -0.702179     -0.082422      0.424934
O       9.47217      5.90945      9.32512         0.158325     -0.216036     -0.738114
O       9.57302      9.76285      0.49413        -0.271508     -0.296864      0.373705
O       9.64843      9.79588     13.51335        -0.194868     -0.224045      0.557655
O       9.63267      9.79683      4.67989        -0.244365     -0.451150      0.991236
O       9.62216      9.64692      9.23818         0.000772      0.101605      1.207941
O       3.89483      2.00235      2.83248        -1.029421     -0.408938     -0.829292
O       3.77237      1.98084     15.67162         1.106577     -0.176069      0.439516
O       3.84683     13.51038      2.77809        -0.628015      0.464641     -0.402650
O       3.77987     13.39332     15.68817        -0.237665     -0.177610      0.101886
O       0.01420      1.94320      2.61316        -0.278705     -0.152475     -0.310361
O       0.02898      1.87802     15.78994        -0.675077      0.077157     -0.087790
O      15.29271     13.56698      2.82108         0.915408      0.226227     -0.628449
O      15.28497     13.61006     15.86641         1.286008     -0.142532     -0.460507
O       3.81621      1.97648      7.19197        -0.407698      0.179583     -0.212269
O       3.74645     13.45714      7.01696         0.850013      0.213099      0.398323
O      15.33284      2.19585      7.07909        -0.217036     -0.220239     -0.165000
O      15.33510     13.61041      7.09413         0.229346      0.667146      0.196900
O       3.78600      1.95822     11.45600         0.766856      0.395969      0.069677
O       3.89482     13.37482     11.05924        -1.519464     -0.094505      0.647907
O       0.05884      1.83971     11.56772        -0.481652     -0.306409     -0.417983
O      15.35604     13.62175     11.49248         0.793904      0.566281     -0.165021
O       3.82293      5.67671      2.62269         0.005645      0.318762      0.113520
O       3.77784      5.80610     15.83745         0.259711      0.156990     -0.394254
O      15.27534      5.97685      2.75710         0.285922     -0.839342     -0.467586
O      15.26670      6.11682     15.65290         0.945460     -0.615877      0.213801
O       3.86601      5.78397      7.09850        -0.504857     -0.385238     -0.249004
O      15.32656      6.03337      6.99637         0.417644     -0.032243      0.392553
O       3.77473      5.78566     11.42646         1.331396     -0.534859      0.121740
O      15.32441      6.16566     11.27013        -0.063935     -0.468213      0.611858
O       3.82159      9.44925      2.77638        -0.094829      0.803529     -0.479641
O       3.84703      9.66246     15.74310        -0.010619     -0.143743     -0.205011
O       0.02081      9.71569      2.64329        -0.819308     -0.770074     -0.109523
O      15.31805      9.71613     15.68258         0.667675      0.002952      0.413600
O       3.83624      9.75424      7.11095        -0.429424     -0.297359     -0.169845
O      15.30428      9.70280      6.88096         0.252254      0.382836      0.577380
O       3.89761      9.66482     11.40743        -1.393022      0.281490     -0.042921
O      15.33563      9.74055     11.44081        -0.366887     -0.305547     -0.262606
O       7.59602      1.98730      2.72876         0.532850     -0.515775     -0.333783
O       7.65803      1.81286     15.82505         0.540123      0.919382     -0.380681
O       7.69333     13.51778      2.87562        -0.342678      0.006727     -0.887057
O       7.71776     13.55607     15.72723        -1.206268     -0.139611     -0.108939
O       7.60102      1.90867      6.95778         1.233090     -0.116386      0.786065
O       7.68941     13.55850      6.99082         0.265295     -0.115146      0.088554
O       7.61939      1.87993     11.46999         0.280628      0.359774     -0.212842
O       7.66155     13.49755     11.44082         0.081462      0.655855     -0.138882
O       7.67778      5.77782      2.85509         0.498900      0.178412      0.061982
O       7.60633      5.95259     15.60422         1.063107     -0.483114      0.339072
O       7.67969      5.95003      7.02673        -0.390532     -0.570597      0.164888
O       7.69372      5.84888     11.62235        -0.731311     -0.075223     -1.014261
O       7.59375      9.81128      2.62036         1.019453     -0.191172      0.223288
O       7.69419      9.75367     15.85413        -0.588599     -0.121044     -0.715562
O       7.74505      9.58877      6.90353        -1.604067      0.128773      0.202256
O       7.65033      9.55446     11.35447         0.259489     -0.057956      0.391031
O      11.56758      1.96746      2.71647         0.013074      0.354532     -0.498752
O      11.57243      2.04036     15.73598        -0.852160      0.055779     -0.152463
O      11.54517     13.62063      2.81220        -0.274600      0.148907     -0.287882
O      11.54263     13.51909     15.79156        -0.404137      0.627891     -0.167704
O      11.49447      2.11141      7.07298         0.139783     -0.217193     -0.144831
O      11.54339     13.55498      7.10779         0.060062     -0.121357     -0.110824
O      11.57787      2.08944     11.32302        -0.363404     -0.044554      0.021933
O      11.51309     13.46318     11.47040        -0.257278      0.117126      0.597004
O      11.44580      6.04976      2.66689         1.108534     -0.749210     -0.333266
O      11.51454      5.91143     15.71082        -0.924041     -0.199088      0.111063
O      11.47993      5.89035      7.07747         0.201386     -0.066000      0.406951
O      11.44875      5.77018     11.43500         0.471821      0.117199     -0.117640
O      11.45969      9.49976      2.56921         0.572706      0.666216     -0.233274
O      11.45928      9.81895     15.80576        -0.324712     -0.512219     -0.415688
O      11.41243      9.60382      7.02152         1.689042      0.699198     -0.158096
O      11.52368      9.86086     11.37867        -0.233795      0.101875      0.046187
O       1.87554      3.75670      2.73361         0.044707      0.734999     -0.311103
O       1.80727      3.87540     15.79731         0.213170      0.605767     -0.385459
O       1.87095     15.38339      2.58638         0.073131      0.294618      0.030325
O       1.95233     15.30804     15.77369        -0.360663      0.111767     -0.321279
O      13.33704      3.98025      2.55158         0.064145      0.395787     -0.102599
O      13.48535      4.07007     15.75529        -0.474022     -0.690751     -0.378168
O      13.57802     15.50058      2.59186        -0.339591      0.782149      0.350274
O      13.52833     15.53409     15.76413        -0.593378      0.268725     -0.386815
O       1.86912      3.92269      7.13123         0.279321     -0.356687     -0.026920
O       1.89986      0.06317      7.15517        -0.041976     -0.173678     -0.502642
O      13.36985      3.98634      7.05845         0.108336      0.600412      0.187078
O      13.42081      0.22905      6.95927         0.055517     -0.077852      0.410441
O       1.77471      3.85273     11.36899         0.363165      0.080759      0.309554
O       1.96781     15.34557     11.42935        -0.063717     -0.378641     -0.010578
O      13.55630      4.04066     11.43835        -0.195799     -0.593495     -0.163625
O      13.39742     15.50836     11.57105         0.304096      0.650704      0.008870
O       1.87744      7.64696      2.76036        -0.231090     -0.017002     -0.216385
O       1.89268      7.68521     15.94143         0.381414     -0.131367     -1.110289
O      13.48709      7.81227      2.70888        -0.100084      0.607795     -0.320866
O      13.38819      7.85471     15.73307        -0.664755     -0.311296      0.137966
O       2.05930      7.73369      6.94243        -0.537545      0.131855      0.546885
O      13.37023      7.85679      6.91091         0.067571      0.576601      0.272026
O       1.94257      7.68423     11.45438         0.292222      0.595614      0.160426
O      13.22863      7.84537     11.40357         0.245463      0.882141      0.055199
O       1.97594     11.51897      2.76064         0.114516      0.285023     -0.232059
O       1.79655     11.39360     15.88798         0.520733      0.891865     -0.734070
O      13.37330     11.67258      2.62717        -0.300219     -0.428739     -0.229541
O      13.40489     11.62548     15.87584         0.294514      0.395992     -0.280594
O       1.90083     11.58431      6.90838        -0.378285     -0.820056      0.637136
O      13.56323     11.74212      6.89296        -0.787873     -1.153045      0.742082
O       1.79268     11.46813     11.45120         0.605539      1.394595     -0.460298
O      13.55415     11.67238     11.40221        -0.408822     -0.377087      0.078084
O       5.80473      3.83848      2.74790        -0.122342     -0.335448      0.051594
O       5.67655      3.85653     15.78296         0.643110      1.094687     -0.250583
O       5.71976     15.42581      2.76422         0.139182     -0.083208     -0.476634
O       5.68830     15.35229     15.67860        -0.137074      0.219306      0.344737
O       5.76787      3.92998      7.24386         0.252113     -0.381688     -0.232644
O       5.64498     15.38865      7.20193         0.222438     -0.304093     -0.043938
O       5.78032      3.92363     11.37038        -0.086099     -0.462162      0.097470
O       5.62132     15.37796     11.46954         0.472893      0.460767     -0.196974
O       5.80139      7.71873      2.75826         0.320294      0.035713     -0.038000
O       5.78751      7.83952     15.85536        -0.255827     -0.219623     -0.513955
O       5.60872      7.71264      6.99607         0.535823      0.806112     -0.209166
O       5.64183      7.77546     11.42957         0.638038     -1.244964     -0.037270
O       5.58444     11.62845      2.70140         0.695165     -0.484045     -0.038191
O       5.68017     11.64141     15.87412         0.669968     -1.204173     -0.741262
O       5.72193     11.59231      7.09184         0.392933     -0.055109     -0.089621
O       5.81228     11.55745     11.41287         0.158922      0.178018     -0.537970
O       9.54067      3.85923      2.75213         0.655886      0.830746      0.090142
O       9.58296      3.94232     15.73868        -0.119194     -0.098462     -0.243402
O       9.67060     15.48492      2.65186        -0.463393     -0.242831     -0.125808
O       9.61923     15.38353     15.65010         0.298352      1.288071      0.461934
O       9.55609      3.94764      7.09196        -0.236696      0.048608      0.025866
O       9.68197     15.45025      6.91746        -0.053272     -0.187310      0.355222
O       9.56949      3.86069     11.54863        -0.408885      0.143841     -0.749121
O       9.62058     15.45133     11.46917         0.100055     -0.168156     -0.172857
O       9.45759      7.77515      2.71079        -0.448566      0.529711     -0.327897
O       9.61294      7.83379     15.72670        -0.254460     -0.517508     -0.078536
O       9.54399      7.73358      7.13692         0.451968      0.261935     -0.416294
O       9.67106      7.78164     11.52914        -0.180151     -0.232382     -0.476885
O       9.74117     11.64498      2.66334        -0.533810     -0.424345      0.343479
O       9.59164     11.67456     15.83180        -0.211936     -0.708420     -0.482416
O       9.62365     11.57113      6.90720         0.123066      0.732635      0.282796
O       9.36727     11.55753     11.40884         0.984722      0.218376     -0.123311
