  # total energy = -7881.19090778 
CRSYTAL
PRIMVEC
    15.3600000000000000    0.0000000000000000    0.0000000000000000
     0.0000000000000000   15.3600000000000000    0.0000000000000000
     0.2400000000000000    0.0000000000000000    17.440000000000000
PRESSURE
1.61409 1.67322 3.90608 -0.256176 -0.716425 -0.015175
PRIMCOORD
320 1
Pb       3.85346      3.83237      4.29636         0.101495      0.176039     -0.313642
Pb       3.99002      3.82189     17.37389        -0.100096     -0.353738      0.157793
Pb       3.80150      0.00047      4.21858         0.411963     -0.268841      0.135322
Pb       4.24651     15.28772     17.37166        -0.868487      0.207418      0.241304
Pb      15.41205      3.90276      4.35371         0.092398     -0.008170     -0.471491
Pb      15.40299      3.83129     17.38306         0.979061     -0.310125      0.023178
Pb      15.40184     15.14401      4.27012        -0.330417      0.597362     -0.624767
Pb       0.37393      0.13068     17.31338        -0.376631     -1.060243      0.631025
Pb       3.81264      3.77651      8.69714         0.206094      0.971559     -0.042389
Pb       3.94245      0.04536      8.64691         0.313816     -0.115068     -0.045532
Pb      15.37266      3.82974      8.73655         0.446887      0.465957      0.076271
Pb       0.23538     15.34917      8.65516        -0.699026      0.210825      0.299674
Pb       4.00031      3.68647     13.03681         0.017028      0.921600      0.099275
Pb       3.95994     15.28682     12.89534        -0.050200      0.133622      0.400130
Pb      15.47446      3.64549     13.13504         0.159580      0.549938     -0.122784
Pb      15.47676     15.17906     12.94640         0.059210      0.531177      1.276706
Pb       3.91747      7.66355      4.28752        -0.575784     -0.223973     -0.123394
Pb       4.02978      7.77047      0.04949        -0.943263     -0.588737     -0.163258
Pb      15.36534      7.75408      4.30790         0.435393     -0.178768      0.327048
Pb       0.26309      7.58338     17.43846         0.232180     -0.127127     -0.585870
Pb       3.91059      7.79815      8.73046         0.338333     -0.777716     -0.573816
Pb       0.22422      7.69933      8.73506        -0.578602     -0.088987      0.106921
Pb       3.96239      7.68330     13.10802         0.093922     -0.546356      0.069202
Pb       0.22208      7.73615     13.11207        -0.294720      0.125457      0.017858
Pb       3.84915     11.55087      4.27233        -0.452398     -0.281662      0.006372
Pb       4.07585     11.43360     17.37164        -0.125081      0.372015      0.525041
Pb      15.29637     11.38146      4.22128         0.430574      0.053276     -0.051293
Pb      15.57065     11.44978     17.39662        -0.130577      0.117133      0.157811
Pb       3.87318     11.49514      8.60298         0.545200      0.032914      0.072666
Pb       0.22111     11.57032      8.66336        -0.768866     -0.538468      0.142264
Pb       3.97522     11.46387     13.17976        -0.227584      0.201682     -0.378377
Pb      15.40533     11.40979     13.04561         0.044980      0.305955     -0.051705
Pb       7.69598      3.79029      4.43327        -0.100335      0.000933     -0.108943
Pb       7.79837      3.82667     17.43337         0.253507      0.041960     -0.463217
Pb       7.60829     15.28738      4.42343         0.183952     -0.322136     -0.359308
Pb       7.87997     15.34708     17.42522         0.331938     -0.107968     -0.126612
Pb       7.81324      3.74895      8.69235        -0.555823      1.015943     -0.459667
Pb       7.78431     15.33066      8.59738        -0.152573     -0.689123      0.297313
Pb       7.81188      3.95681     12.83885        -0.161805     -0.030950      0.232121
Pb       7.76952      0.05976     12.95925         0.004346     -0.461648      0.180611
Pb       7.77631      7.55835      4.28595         0.005251      0.324607     -0.102694
Pb       7.72623      7.73406      0.01735        -0.115535     -0.464131     -0.486770
Pb       7.80968      7.67921      8.71192        -0.691261     -0.117982      0.128208
Pb       7.85041      7.73138     13.09469        -0.005048     -0.201607     -1.130500
Pb       7.89854     11.44962      4.35270        -0.096446      0.195098     -0.229696
Pb       7.57397     11.65193      0.03776         0.272980     -0.227466     -0.641880
Pb       7.71126     11.46213      8.60217        -0.089912      0.267458      0.141376
Pb       7.79513     11.65179     13.02039         0.017835     -0.378085     -0.124560
Pb      11.60188      3.92054      4.44540         0.019195     -0.417315     -0.391025
Pb      11.65386      3.94737     17.39901         0.054497     -0.510873     -0.199030
Pb      11.55721      0.06275      4.47672         0.297378     -0.388281     -0.561743
Pb      11.80392      0.18102     17.42690         0.092528     -0.412806     -0.701533
Pb      11.75849      3.85226      8.73124        -0.147358     -0.037109     -0.682606
Pb      11.60268      0.02285      8.64432         0.133177     -0.206409     -0.276789
Pb      11.60593      3.81106     12.98703         0.151175     -0.472441     -0.025533
Pb      11.54193     15.17164     13.01383         1.012499      0.710460      0.688042
Pb      11.53806      7.56562      4.39671        -0.061980      0.231126     -0.813891
Pb      11.63774      7.60679     17.32505         0.493808      0.139573      0.184960
Pb      11.62709      7.63688      8.66056         0.134528      0.490063      0.437460
Pb      11.84474      7.56875     13.05445        -0.632077      1.023062     -0.224775
Pb      11.67993     11.41019      4.19688        -0.385379      0.158361      0.232340
Pb      11.64735     11.62879     17.42503         0.295622     -0.396722      0.110088
Pb      11.58017     11.58760      8.70874         0.076630     -0.108777     -0.092864
Pb      11.57842     11.47367     13.04973         0.542459     -0.099820     -0.463826
Ti       1.98285      1.82075      2.26818        -0.496809      0.755002     -1.294834
Ti       2.18262      1.88647     15.36591         0.163433     -0.421778      3.032922
Ti       1.88024     13.39103      2.14654         1.030892     -0.340664     -0.034002
Ti       2.11628     13.34983     15.44891        -0.110289      0.851127     -0.813867
Ti      13.47502      1.88575      2.33546         0.180925      0.015226      0.393489
Ti      13.61012      1.87800     15.27081         0.275418     -0.790840      3.128210
Ti      13.38564     13.43590      2.16223         0.646349      0.266385     -0.317303
Ti      13.65958     13.36253     15.50174        -0.066811      1.416152      0.063351
Ti       1.92560      1.95818      6.64103         0.794791      0.509423      2.015180
Ti       2.00965     13.51912      6.67092         0.209613     -1.168925      0.055909
Ti      13.51385      1.92525      6.65628        -0.309102      0.049841      0.256969
Ti      13.60447     13.45597      6.68596        -2.035470     -0.151956      1.271065
Ti       2.04093      2.01212     11.04720        -0.244995     -1.131657      1.004836
Ti       2.10183     13.39080     11.03596        -0.590221     -0.035157      0.881453
Ti      13.53422      1.85682     10.97136         0.280437      0.142003      2.911231
Ti      13.57796     13.45309     11.02667         0.549245     -0.943101      0.649262
Ti       1.89813      5.70778      2.30643         0.466763      1.210559      0.515227
Ti       2.16595      5.71214     15.43325        -0.219305      0.382743     -1.283156
Ti      13.52520      5.74980      2.27122        -0.818116     -0.236534      0.598226
Ti      13.64920      5.73444     15.36761         0.871165      0.157946      3.200522
Ti       1.97949      5.77334      6.69213         0.457418      0.128163     -1.265299
Ti      13.58846      5.86452      6.67369        -0.540942     -0.530900      1.914154
Ti       1.95339      5.76072     11.20363         0.689268     -0.590399     -1.208831
Ti      13.57200      5.69215     11.21957         1.916122      0.320714     -0.026899
Ti       2.00846      9.57768      2.28167        -0.509855     -0.917009      1.023605
Ti       2.14259      9.58114     15.51728        -0.600931     -1.379408      0.803592
Ti      13.45872      9.48789      2.19460        -0.347125      0.074024      0.406198
Ti      13.61440      9.59954     15.49631         0.091893     -1.223351     -0.282572
Ti       1.96559      9.60284      6.61118         0.489770      0.053358      0.641174
Ti      13.46040      9.63100      6.76151         0.932609     -0.139537     -0.202878
Ti       2.07111      9.61987     11.01035        -0.718710     -0.316845      2.325809
Ti      13.55577      9.59078     10.97471         0.921375      0.022409      0.075880
Ti       5.87838      1.84050      2.38403        -1.267216      0.420272      1.118320
Ti       5.98661      1.86519     15.32139         0.025056      0.052332      2.527787
Ti       5.77270     13.34158      2.36552        -0.258444      1.319304      0.677465
Ti       5.92460     13.38993     15.28673         0.960953     -0.149774      0.509238
Ti       5.83568      1.91418      6.65259        -0.256613      0.329413      1.526166
Ti       5.73812     13.39264      6.63501         1.493521     -0.065990      0.465475
Ti       5.89024      1.94056     10.85424        -0.131396     -0.097818      2.378048
Ti       5.88910     13.37721     10.99906         0.286976      0.271860     -0.579816
Ti       5.78195      5.73887      2.36593        -0.364094     -0.517584      2.261655
Ti       5.89104      5.68357     15.34173         0.348195      0.368319      1.128709
Ti       5.77925      5.76004      6.60723         0.054435     -0.008162      2.035433
Ti       5.76661      5.85495     10.96491         1.867056     -0.177422      0.067613
Ti       5.84975      9.65600      2.33862        -0.408824     -1.251300      1.771305
Ti       5.97951      9.58785     15.35660         0.323680     -0.464092      0.099715
Ti       5.77153      9.55606      6.54634         0.101219      0.084923      2.555564
Ti       5.77874      9.64490     11.06419         1.347279     -0.250861      0.422979
Ti       9.63297      1.83342      2.42078         0.511055      0.442046      1.186677
Ti       9.78219      1.87686     15.34454         0.180229      0.031925      0.582940
Ti       9.60233     13.47042      2.30767         0.498138     -0.286906      1.786630
Ti       9.79014     13.41298     15.38712        -0.038843      0.760148     -0.051138
Ti       9.61347      1.85899      6.68734         1.339611      0.764103      1.917557
Ti       9.68881     13.37736      6.59761         0.190361     -0.022143      1.056108
Ti       9.70634      1.89742     11.01397         0.884461      0.247060      1.398369
Ti       9.79026     13.53835     11.00012        -0.606762     -1.884240      1.277026
Ti       9.58717      5.59862      2.40731         1.383730      0.991334      0.227978
Ti       9.76012      5.73768     15.28483        -0.569112     -0.508200      0.470747
Ti       9.62022      5.74867      6.75583         0.309899      0.252492     -0.294912
Ti       9.72839      5.79384     10.98340        -0.450431      0.294264      3.945878
Ti       9.68014      9.55281      2.28268        -0.072353     -0.491469      1.816937
Ti       9.78636      9.64364     15.33278         0.468000     -1.335292      1.646021
Ti       9.60641      9.55676      6.70646         0.965561      0.329141      0.425398
Ti       9.66728      9.63814     11.08655         0.219093     -0.627832     -0.559996
O       1.99807      1.86395      0.48797         0.049195     -0.108137      0.771173
O       2.24811      1.89837     13.68241         0.091738     -0.039125     -2.010354
O       1.99945     13.33733      0.39385        -0.190169     -0.114145     -0.104568
O       2.17276     13.31811     13.65222         0.192870      0.123505      0.174812
O      13.41454      1.95294      0.56579        -0.169512     -0.266473      0.355248
O      13.57891      1.78669     13.61572         0.070793      0.379606     -2.372608
O      13.54445     13.40223      0.37783        -0.684728      0.058246      1.040321
O      13.68891     13.43026     13.77358        -0.481730     -0.472342     -1.464028
O       1.94915      1.93617      4.95405        -0.023934      0.034197     -1.778069
O       2.00764     13.54825      4.95210        -0.141764     -0.088044     -0.737317
O      13.42931      1.87684      4.90439         0.431952     -0.091970      0.357135
O      13.45586     13.48612      4.97934         0.627557     -0.313804     -1.327601
O       2.06503      1.98755      9.30539        -0.085866     -0.303950     -0.873598
O       1.98801     13.38330      9.29290        -0.043269      0.547708     -0.866015
O      13.54956      1.99265      9.26787         0.048512     -0.039342     -1.860809
O      13.54194     13.44731      9.32178         0.085640      0.306310     -1.628796
O       1.79254      5.78573      0.56517         0.383334     -0.277069     -0.344536
O       2.20871      5.69426     13.62766        -0.201668      0.269862      0.026910
O      13.51998      5.70115      0.50083         0.003788     -0.036231      0.111750
O      13.57377      5.78479     13.70758        -0.080209     -0.287782     -3.526861
O       1.92904      5.72883      4.83006         0.155903     -0.177296      2.178876
O      13.62658      5.90791      4.98265        -0.415709     -0.233808     -1.734134
O       2.02628      5.63479      9.39389        -0.385355      0.306082      0.468680
O      13.77788      5.62583      9.52027        -0.537632     -0.292961     -1.687697
O       2.03331      9.56135      0.55169        -0.251204      0.185811     -1.077028
O       2.05835      9.53782     13.79775         0.272147      0.103169     -1.424121
O      13.34899      9.55913      0.44083         0.227804     -0.276529      0.406893
O      13.76184      9.65620     13.71394        -0.428198     -0.155902      0.148209
O       1.96181      9.49978      4.90322        -0.067677      0.357702     -1.508426
O      13.64057      9.67763      4.94038        -0.690875     -0.209643      1.129299
O       2.08410      9.52704      9.31141        -0.047272      0.230069     -1.849804
O      13.62920      9.59403      9.23063        -0.149265     -0.083757     -0.831848
O       5.92597      1.76244      0.67075        -0.322222      0.108182     -1.089718
O       5.95148      1.80983     13.63290        -0.044334      0.241585     -1.624718
O       5.83314     13.40888      0.62560         0.115243     -0.303332     -1.017495
O       5.98690     13.32962     13.54401        -0.303952      0.365905     -0.473701
O       5.82724      1.76765      4.93636         0.172199     -0.002486     -0.998030
O       5.88791     13.51560      4.87769        -0.565851     -0.423261     -0.120677
O       5.91011      1.94167      9.14592        -0.075424      0.038389     -0.753588
O       5.83959     13.28844      9.24047         0.299657      0.003980      0.050770
O       5.83452      5.67074      0.68530        -0.082419     -0.001328     -2.086012
O       5.77699      5.71829     13.62938         0.799153      0.074478     -1.167666
O       5.69617      5.85566      4.88263         0.548256     -0.362055     -0.939124
O       5.87936      5.78713      9.23084        -0.236666      0.040068     -0.415388
O       5.85780      9.54650      0.62930        -0.087956      0.172896     -1.846898
O       5.79144      9.62812     13.61213         0.418619     -0.352533      0.227496
O       5.68998      9.62482      4.86551         0.459585     -0.107441     -2.211632
O       5.79891      9.68878      9.32572        -0.308655      0.083278     -0.930025
O       9.57643      1.84785      0.71531         0.324706      0.200207     -1.450129
O       9.75216      1.74598     13.61216        -0.116939      0.427026     -0.506824
O       9.59694     13.45157      0.61175        -0.285381     -0.084779     -2.091630
O       9.80870     13.41999     13.57851         0.133859     -0.246317      0.839531
O       9.79495      1.72391      5.03134        -0.499019      0.484416     -2.479953
O       9.69622     13.34905      4.86655        -0.148612     -0.190020     -0.762686
O       9.78484      1.81979      9.32479        -0.486329      0.258104     -2.182107
O       9.74734     13.50567      9.29817         0.152184      0.019381     -1.417654
O       9.69276      5.57051      0.65938        -0.534276      0.034486     -0.197545
O       9.68885      5.75312     13.49795         0.226434     -0.138394      1.108892
O       9.69018      5.73750      4.98682         0.054343      0.635051     -0.705376
O       9.65209      5.75031      9.33179         0.232978      0.107375     -3.809862
O       9.62228      9.35667      0.59641        -0.084409      0.463814     -1.580841
O       9.85227      9.52626     13.60874        -0.352844      0.459058     -1.034954
O       9.71792      9.61562      4.97228        -0.265897     -0.095958     -0.864067
O       9.65325      9.48595      9.31798         0.153719      0.294024      0.139291
O       3.86641      1.87127      2.74107         0.159478      0.338110      0.128137
O       4.16461      1.82806     15.97383        -0.249718      0.288301     -0.775964
O       3.82436     13.26485      2.64182         0.581118      0.488833      0.282450
O       4.13891     13.09094     15.74660        -0.395448      0.732260     -0.131425
O       0.09075      1.67132      2.63712        -0.441581      0.453848      0.339020
O       0.30880      1.75658     15.86373        -0.428117      1.030876     -1.326805
O       0.05011     13.41042      2.58628        -0.798095      0.426105      0.404640
O       0.22938     13.44072     15.69006         0.519870     -0.386034      0.629733
O       3.99560      1.99129      7.08686        -1.056711     -0.563782     -0.033725
O       3.90270     13.43302      7.13676        -0.430953      0.604832     -0.214778
O      15.43591      1.83553      7.08417        -0.252146      0.418248     -0.126628
O      15.45536     13.49399      7.14008         0.526315     -0.061448     -0.160887
O       3.97472      1.90175     11.42069         1.055838     -0.320738     -0.409118
O       3.99053     13.32999     11.27835        -0.300494      0.859063      0.604504
O       0.20062      1.95253     11.48768        -0.645088     -0.386550     -0.401605
O      15.46614     13.46752     11.47574         0.905476     -0.388763     -0.434047
O       3.89852      5.69186      2.79373        -0.366449      0.022686     -0.450876
O       4.03268      5.67971     15.66078         0.866993     -0.292880      1.291609
O      15.37903      5.88108      2.88870         0.060901     -0.831323     -0.897915
O       0.32699      5.73515     15.84490        -1.603595      0.095035     -0.058532
O       3.89988      5.70682      7.10759        -0.433812     -0.302505     -0.183538
O      15.42462      5.72944      7.16118         1.083099      0.342668     -0.091094
O       4.02793      5.84357     11.38373        -1.796954     -0.117036      0.476855
O      15.50512      5.57474     11.67908        -0.334350      0.241478      0.087980
O       3.84482      9.50537      2.69147         1.339403      0.838719      0.108282
O       4.09363      9.58406     15.89912         0.512050      0.411239     -0.213060
O      15.34965      9.47501      2.72588         0.384815      0.442262     -0.577635
O       0.22274      9.53944     15.91259        -0.136771     -0.076491      0.066916
O       3.92514      9.66022      6.99987        -0.507684     -0.129548      0.517548
O       0.15641      9.51838      7.09978        -0.808139      0.564043      0.186081
O       3.95632      9.54321     11.56783        -1.224765      0.096323     -0.271196
O       0.20790      9.59768     11.55556        -0.183101     -0.148567     -0.332460
O       7.69990      1.85891      2.77358         0.976079      0.110695      0.631378
O       7.94477      1.76425     15.91329        -1.150471      0.920660     -0.654439
O       7.76394     13.34841      2.72428        -0.727771     -0.182405      0.293545
O       7.90725     13.43194     15.67769        -0.158931     -0.533297      0.669502
O       7.76028      1.89175      7.16732         0.212877     -0.164276     -0.383251
O       7.75615     13.30873      7.01032         0.198348      0.515462      0.081030
O       7.84566      1.82753     11.43665        -1.031676      0.575135     -0.475381
O       7.94383     13.32315     11.44949        -1.308260      0.472957     -0.250971
O       7.74665      5.61327      2.89063        -0.078860      0.295762     -0.248199
O       7.85395      5.67725     15.86798         0.507370      0.239585     -0.604686
O       7.71554      5.73635      7.11284        -0.109396      0.836853     -0.053067
O       7.82550      5.81370     11.33355        -0.411718     -0.142991      0.707598
O       7.71068      9.55924      2.72777         0.670241      0.298201      0.247439
O       7.93021      9.43924     15.82144        -0.337631      0.019611     -0.325966
O       7.72964      9.61012      7.05642        -0.465707      0.009850     -0.185697
O       7.73619      9.59849     11.37389         1.191077      0.285251      0.662105
O      11.59937      1.84330      2.90261        -0.266373      0.471551     -0.630002
O      11.74673      2.00247     15.67439        -0.819608     -0.520366      0.583348
O      11.55760     13.39629      2.54302         0.463073     -0.317329      0.191086
O      11.70116     13.41424     15.82371        -0.603185     -0.266773      0.145011
O      11.57988      2.01935      7.13952         0.188873     -0.253131      0.124844
O      11.59271     13.47588      7.05770         0.219963     -0.335192      0.336200
O      11.68584      1.85872     11.30831        -0.830844      0.321273      0.488041
O      11.72591     13.33333     11.46115        -0.783706      0.424370      0.161438
O      11.61674      5.62760      2.74399        -0.118659      0.413907      0.338050
O      11.77312      5.64604     15.79681        -1.083042     -0.014848     -0.295001
O      11.64205      5.82784      7.18026        -0.232394     -0.423040     -0.172561
O      11.73830      5.72493     11.50130        -1.395091     -0.343908      0.008299
O      11.58237      9.50667      2.81163         0.415196      0.050001     -0.353780
O      11.70278      9.45294     15.82854        -0.503392      0.685728     -0.319368
O      11.60072      9.48709      7.09045         0.055288      0.191255      0.026464
O      11.77384      9.64197     11.49063        -1.430905     -0.314962      0.101511
O       1.88226      3.85890      2.60225         0.010463     -1.357622      0.681641
O       2.18771      3.75752     15.79715         0.099686     -0.050057      0.070889
O       2.12858     15.26958      2.54034        -0.579771     -0.041405      0.466560
O       2.32823     15.26483     15.82660        -0.080257     -0.174623     -0.215197
O      13.57403      3.84066      2.77271         0.266249     -0.445436     -0.062334
O      13.81255      3.78888     15.74935        -0.409008     -0.068155     -0.399384
O      13.37509     15.31402      2.72847         0.591777     -0.609845     -0.262434
O      13.61232     15.32571     15.75372        -0.121901      0.614049      0.594752
O       1.97270      3.86081      7.23148        -0.128626     -0.335587     -0.930910
O       2.02196      0.07065      7.04542         0.289503     -0.508222      0.515474
O      13.54578      3.88436      7.01604        -0.020929     -0.533351      0.363830
O      13.49893     15.35011      7.09545         0.135982      0.455231      0.066943
O       2.11680      3.82492     11.56638         0.268548     -0.319545     -0.039454
O       2.06246     15.35833     11.60661         0.326735     -0.453910     -1.199714
O      13.59772      3.71573     11.62605        -0.376694      0.264051     -0.174780
O      13.57574     15.35842     11.53831         0.008746     -0.188104     -0.785364
O       2.04418      7.66464      2.61106        -0.413508     -0.121667      0.445875
O       2.25007      7.60298     15.83027        -0.193015      0.901967      0.320820
O      13.44851      7.61888      2.75828        -0.173043      0.263920     -0.375437
O      13.60160      7.60969     15.73502         0.428927      0.199798      0.381889
O       2.10280      7.70512      7.08474        -0.281996     -1.033263      0.199608
O      13.57677      7.69193      7.25409         0.061541      0.179750     -0.403368
O       1.83716      7.62536     11.42013         1.161504      0.595013      0.179752
O      13.62835      7.66858     11.32096         0.149275     -0.604616      1.075114
O       1.89839     11.49568      2.67262         0.042575     -0.293303      0.184312
O       2.06938     11.45410     15.89507         0.461893      0.020044     -0.023819
O      13.56661     11.42167      2.62698        -0.553557      0.821036     -0.077307
O      13.56915     11.44572     15.84853         0.338136      0.487859      0.202639
O       2.03854     11.55245      6.95852        -0.431181      0.211717      0.391029
O      13.49700     11.50691      7.19996         0.403759      0.271648     -0.419931
O       2.07431     11.48712     11.34136        -0.035460      0.283389      0.285140
O      13.71647     11.46384     11.26035        -0.162255      1.031768      0.863786
O       5.81768      3.77158      2.83765         0.076666     -0.135142      0.016831
O       5.88559      3.76759     15.89597         0.865539     -0.176878     -0.525088
O       5.78562     15.25445      2.82610         0.068539      0.347938     -0.229586
O       5.94112     15.24370     15.72643         0.170388      0.454947      0.021793
O       5.95571      3.83872      6.93209        -0.169089     -0.431161      0.039958
O       5.89784     15.29740      7.20311        -0.405602      0.255189     -0.489859
O       5.92471      3.83019     11.40250         0.008282     -0.449181     -0.447652
O       5.97294     15.30701     11.24157        -0.316755      0.498326      0.291792
O       5.88707      7.62865      2.69155        -0.152751      0.473744      0.207424
O       5.86820      7.60277     15.79744         0.672979      0.487593     -0.077840
O       5.65773      7.69079      7.02664         0.814328      0.037340     -0.007575
O       5.91029      7.77598     11.41272        -0.117705     -1.053443      0.326585
O       5.77304     11.50997      2.73793         0.331626     -0.773811      0.229059
O       6.19670     11.44502     15.67012        -0.359613      0.010644      0.648425
O       5.74756     11.52870      6.98340         0.344278     -0.335574      0.141944
O       5.80684     11.55970     11.60192         0.557595     -0.723472     -0.359740
O       9.75041      3.77040      2.97768        -0.755783     -0.341539     -0.364452
O       9.79214      3.82475     15.81423        -0.146199     -0.284977     -0.311651
O       9.62806     15.33556      2.79313         0.129194     -0.240938      0.093989
O       9.72741     15.29834     15.86106         1.124079      0.303330     -0.285908
O       9.54921      3.94031      6.88608         0.475534     -2.365576      1.129033
O       9.71039     15.33381      7.00554        -0.306544     -0.292329      0.495496
O       9.68816      3.82892     11.34259         0.442827     -0.275255      0.347135
O       9.74622     15.35157     11.45691         0.184070      0.036991     -0.001930
O       9.70665      7.62675      2.68427        -0.485835     -0.815283      0.784154
O       9.84058      7.59523     15.78990        -0.249584     -0.299908     -0.211518
O       9.59733      7.67556      7.13635         0.321678      0.170778      0.085403
O       9.77443      7.62999     11.50653         0.136480      1.048895     -0.030908
O       9.77410     11.42871      2.64045        -0.648348      0.591163      0.265683
O       9.79595     11.42935     15.99425        -0.159831      0.856051     -0.944856
O       9.74354     11.47909      7.14032        -0.144038      0.033166     -0.145562
O       9.80728     11.51033     11.36950         0.114973     -0.291870      0.388516
