  # total energy = -7877.26899300 
CRSYTAL
PRIMVEC
    15.3600000000000000    0.2300000000000000    0.0000000000000000
     0.0000000000000000   15.3600000000000000    0.0000000000000000
     0.0000000000000000    0.0000000000000000    17.440000000000000
PRESSURE
1.66551 1.58005 0.318655 -0.135523 0.084067 -1.48849
PRIMCOORD
320 1
Pb       3.85188      3.84485      4.25487        -0.166538     -0.030709     -0.315528
Pb       3.72209      3.95568     17.32986         0.332786     -0.224078     -0.375133
Pb       3.70178     15.40592      4.53936         0.248458     -0.485504     -1.056668
Pb       3.69853     15.31879     17.41162         0.226365      0.211176     -0.271890
Pb       0.14891      3.76062      4.22583        -0.778824     -0.001718     -0.077309
Pb       0.01852      3.71997     17.28209        -0.290627      0.213497      0.029984
Pb      15.27291      0.31908      4.44079        -0.123016     -0.455374     -1.145772
Pb      15.26274     15.48411     17.31001         0.465285      0.210370      0.271773
Pb       3.85952      3.94559      8.65688        -0.029947      0.041535     -0.177142
Pb       3.70742      0.18439      8.85417         0.496895     -0.854545     -0.433418
Pb       0.09264      4.24687      8.82350        -0.542759     -1.205491      0.263124
Pb       0.06307     15.30256      8.73486        -0.484223     -0.010777      0.416413
Pb       4.07689      4.00916     13.03918        -0.691073     -0.419367      0.327080
Pb       3.82430      0.20880     13.13094         0.101843     -0.050942     -0.349541
Pb      15.33216      4.13296     13.01204         0.090116     -0.205775     -0.013694
Pb      15.31630      0.29812     13.10380         0.379406      0.355602     -0.227277
Pb       3.89857      7.73815      4.37004        -0.378354     -0.235882      0.180533
Pb       3.79079      7.81410     17.41002        -0.358053     -0.009407     -0.635540
Pb      15.17393      7.69457      4.30275         0.709539      0.220678     -0.328016
Pb      15.34718      7.89636     17.32340         0.180923     -0.400244     -0.106907
Pb       3.68325      7.71002      8.54524         0.504079      0.369692     -0.268910
Pb      15.15928      8.07317      8.68879         0.231832     -0.707035     -0.502873
Pb       3.90226      7.78692     12.90035        -0.571785      0.154403      0.614800
Pb       0.01129      7.70511     13.04234        -0.608613     -0.420724     -0.174808
Pb       3.88285     11.52831      4.22198        -0.238585      0.371724      0.085533
Pb       3.81784     11.60495     17.41547         0.278225     -0.332989     -0.417629
Pb       0.03892     11.54953      4.25004         0.183563      0.118528     -0.211590
Pb       0.18543     11.49080      0.09106        -0.504671     -0.060710     -0.645540
Pb       3.60978     11.55554      8.60596         0.677673      0.196191     -0.080409
Pb      15.23496     11.77467      8.51812         0.189384      0.344529      0.025294
Pb       3.87369     11.49834     12.94390         0.102179     -0.058746     -0.402647
Pb       0.02255     11.37562     13.06440        -0.679246     -0.119447     -0.443015
Pb       7.53267      3.75800      4.35499         0.507452     -0.169747      0.011301
Pb       7.51400      3.99024     17.42718         0.609759     -0.129697     -0.400015
Pb       7.41955     15.46192      4.42594         0.223278      0.415270     -0.192415
Pb       7.68155      0.19040     17.42819        -0.078200     -0.303002     -0.536352
Pb       7.62243      4.03214      8.61029         0.297604     -0.446206     -0.050696
Pb       7.69523      0.12652      8.77573        -0.057249     -0.167895     -0.601526
Pb       7.70696      3.85030     13.01553        -0.439091      0.033529     -0.115602
Pb       7.63190     15.20815     13.18396         0.319256      0.242601     -0.353114
Pb       7.71922      7.64485      4.44383        -0.087300      1.177573     -0.260078
Pb       7.77427      7.79361      0.22836         0.914982      0.022373     -0.696881
Pb       7.81993      7.92234      8.59083        -0.363536     -0.102697     -0.613068
Pb       7.59561      7.81655     13.02209         0.844148     -0.642835     -0.023882
Pb       7.69918     11.90237      4.50399        -0.115411     -0.808504     -1.072207
Pb       7.66704     11.52485      0.11502         0.604388      0.354117     -0.887275
Pb       7.57118     11.75717      8.81659        -0.299755     -0.194807     -0.578242
Pb       7.74260     11.56577     13.22580         0.208538      0.488102     -0.405530
Pb      11.51406      4.00368      4.41549        -0.153408     -0.261574     -0.790208
Pb      11.42990      3.86383      0.04374        -0.087199      0.532913     -0.674555
Pb      11.59600      0.28002      4.28717        -0.281383     -0.059794     -0.117468
Pb      11.37514     15.28206      0.07912         0.247414      0.375677     -0.639949
Pb      11.49953      3.97154      8.77820         0.151664     -0.314513     -0.445920
Pb      11.61441      0.18411      8.77059        -0.112634      0.075353     -0.305389
Pb      11.46723      3.89506     13.11193         0.580914      0.115574     -0.285350
Pb      11.58960     15.32389     13.02238        -0.576995      0.205580     -0.177721
Pb      11.42276      7.89774      4.22926        -0.005211     -0.011127     -0.368608
Pb      11.56213      7.69306      0.02917        -0.434380     -0.002539     -0.301306
Pb      11.51324      7.83753      8.56079        -0.023363      0.124292     -0.245336
Pb      11.41156      7.71351     13.13843         0.348844     -0.096824     -0.599566
Pb      11.67767     11.63292      4.21606        -0.677576      0.028663     -0.145887
Pb      11.58329     11.57854     17.43192        -0.403342      0.208797     -0.538542
Pb      11.37721     11.66911      8.53478         0.577141      0.183497     -0.038875
Pb      11.52974     11.54840     13.05078        -0.012946      0.415327     -0.085918
Ti       1.84392      1.87073      2.15487         0.047875     -1.046052     -0.243007
Ti       1.96065      1.84437     15.41783        -0.813964      1.333508     -0.388135
Ti       1.84997     13.42886      2.26609         0.800435      0.690999      0.182651
Ti       2.02234     13.39235     15.23975        -1.029865      0.485072      0.258937
Ti      13.35382      2.16300      2.17490        -0.081733     -0.826327     -0.223674
Ti      13.34676      1.98134     15.47160         0.255240      0.524802     -1.288574
Ti      13.36510     13.59473      2.22752         0.716179      0.469541      1.031560
Ti      13.52418     13.55291     15.38327        -0.759001     -0.730878      0.587473
Ti       1.79801      1.96676      6.82166         0.597339      0.631690      0.552837
Ti       1.84451     13.58438      6.69966         0.625615     -1.693125      0.324126
Ti      13.45422      2.11953      6.74599        -0.827746      0.317578      0.517927
Ti      13.39702     13.68882      6.54855         0.175558     -0.004231      0.616563
Ti       2.02899      2.04665     10.97382        -1.849347      0.132671      0.974235
Ti       1.86305     13.49016     11.00441         1.258120      0.675970     -1.203347
Ti      13.43027      2.04988     11.07260         0.210650      0.398582      0.396552
Ti      13.54049     13.59581     10.96001        -1.772291     -0.709785      0.141055
Ti       1.96858      5.69279      2.32675        -1.169744      0.924724     -1.007230
Ti       1.97691      5.72164     15.41783        -0.428868      0.376311     -0.628650
Ti      13.38727      5.87735      2.28878        -0.468245      0.047591     -0.978280
Ti      13.46985      5.88434     15.40133        -0.414213      0.227554     -0.297850
Ti       1.91331      5.71435      6.60063        -0.255697      1.451878     -1.279616
Ti      13.39116      5.84168      6.61966         0.458775      0.624193      1.438577
Ti       1.94262      5.88891     11.04983        -0.998736     -1.692399     -0.845330
Ti      13.29639      5.88907     10.98385         1.130120      0.976761      1.778805
Ti       1.92261      9.50725      2.35266        -1.066520     -0.025848     -1.077970
Ti       1.85761      9.61876     15.38155         0.726222     -1.049873      1.798380
Ti      13.52652      9.73176      2.19137        -0.985554      0.103277      0.825227
Ti      13.44285      9.80596     15.39121         0.232630     -1.042953      0.539051
Ti       1.86495      9.63318      6.58364         0.773235     -0.082000     -0.461541
Ti      13.49368      9.84891      6.47215        -1.022581     -0.446563      2.093955
Ti       1.81682      9.62025     10.78580         0.506645     -0.389281      1.383876
Ti      13.31682      9.78055     10.89418         0.880583     -0.932072      2.103318
Ti       5.66079      2.02606      2.22637         0.035939     -0.642858      0.052772
Ti       5.76727      1.99148     15.40865        -0.055949     -0.072597     -1.040955
Ti       5.62922     13.62872      2.27711         0.425069     -0.453114      0.845009
Ti       5.82843     13.52390     15.49038         0.174555     -0.279631      0.101767
Ti       5.70183      1.95978      6.81590         0.730114     -0.625686      0.150101
Ti       5.67265     13.47896      6.68960        -0.178568      0.477937      0.361365
Ti       5.75369      1.92533     10.92942         0.640545      0.164052      1.282325
Ti       5.74282     13.44366     11.08504        -0.196759     -0.035660     -1.226872
Ti       5.72747      5.88114      2.26921         0.238431     -0.002195      0.391272
Ti       5.90779      5.92224     15.42021        -0.800049     -1.091138     -0.722288
Ti       5.78374      5.88835      6.68081         0.305377      0.507514      0.155957
Ti       5.76140      5.82151     10.99605         0.517114     -0.541647     -0.103192
Ti       5.79221      9.67382      2.32969         0.679730      0.470306      2.144092
Ti       5.78762      9.65738     15.37755         0.266469      0.353015      0.982506
Ti       5.71852      9.72278      6.54813         0.586051     -0.188352      1.792589
Ti       5.77222      9.60436     10.97407        -0.717873      1.765154     -0.098989
Ti       9.46691      2.02985      2.33650         0.714508      0.621580      1.903094
Ti       9.58287      2.01551     15.27806        -0.426643      0.057859      2.714065
Ti       9.54030     13.69281      2.37778        -0.177632     -1.986368     -1.165742
Ti       9.61707     13.60130     15.49545        -0.267066     -1.252482     -1.689500
Ti       9.57868      2.02232      6.68471        -0.273646     -0.577077     -1.389657
Ti       9.55057     13.58260      6.59277         0.619053      0.065060      1.217980
Ti       9.58366      1.96688     11.08557         0.039713     -0.624074      0.182194
Ti       9.61417     13.48612     11.00894         0.121192      0.156329      1.275721
Ti       9.45997      5.87198      2.46038         2.624678      0.024854     -2.348085
Ti       9.63446      5.85384     15.47692         0.325170      0.662585      0.416826
Ti       9.64451      5.81737      6.60889        -1.119342      0.559514      0.241036
Ti       9.54949      5.77592     10.98073         0.286191      1.344176      0.222944
Ti       9.58959      9.87639      2.34419        -0.134480     -0.955387      0.344052
Ti       9.66754      9.72065     15.38161        -0.580537     -0.106373      1.595177
Ti       9.62625      9.79158      6.56717        -0.825218     -1.186589     -1.828806
Ti       9.56280      9.69817     10.96426         0.467783     -0.391817      1.058034
O       1.80089      1.86801      0.40907         0.426044      0.091485     -0.505989
O       1.98035      1.90422     13.65781        -0.047638     -0.247316     -0.569831
O       1.94724     13.40307      0.47904         0.250227     -0.130476     -0.219402
O       2.00440     13.43939     13.44219        -0.327181     -0.139747      0.430225
O      13.37767      2.05865      0.39292        -0.480927      0.347582     -0.274368
O      13.49187      1.81178     13.64549        -0.364339      0.183762     -0.170567
O      13.39679     13.58432      0.50005         0.033415      0.009051     -0.825237
O      13.65410     13.59183     13.64266        -0.242749      0.092297     -1.410150
O       1.80249      1.86200      5.07168         0.154528      0.268571     -1.257883
O       1.77796     13.61928      4.96519         0.254181      0.324271     -1.161959
O      13.50174      2.15486      5.03069         0.246649     -0.131000     -1.848786
O      13.59718     13.76020      4.81882        -0.234738     -0.104598     -1.299759
O       1.99308      2.00412      9.20084         0.412689      0.186725     -0.728375
O       1.85611     13.53184      9.14544        -0.109000     -0.118584      0.699780
O      13.16108      2.09071      9.35911        -0.030140      0.140190     -1.852690
O      13.46002     13.55312      9.22022        -0.114447      0.035887     -1.226103
O       2.00249      5.69151      0.53694        -0.044168      0.050507      0.284317
O       1.85935      5.76884     13.67512        -0.079095      0.017115     -1.451806
O      13.28073      5.78189      0.49669         0.060590      0.317114      0.469426
O      13.44288      5.91977     13.61619        -0.157116      0.137469      0.211518
O       1.93533      5.61916      4.72609        -0.274096     -0.275501      1.143805
O      13.41847      5.74352      4.90888         0.478212      0.387799     -1.354676
O       1.81270      5.78709      9.16963         0.657942      0.537379      1.147617
O      13.33670      5.92373      9.24082         0.048350     -0.352209     -1.535248
O       1.95907      9.55054      0.50023         0.345007      0.174046      0.462726
O       1.80612      9.43988     13.68950         0.018209      0.500089     -1.760449
O      13.32033      9.80286      0.47332         0.374098     -0.340383     -0.963387
O      13.59616      9.82495     13.64936         0.018044     -0.068599     -1.364649
O       1.78051      9.64834      4.81132         0.076227     -0.186948     -0.057610
O      13.54529      9.80230      4.76713         0.073716     -0.051654     -0.947270
O       1.91704      9.55544      9.02973        -0.098487     -0.201632     -0.492600
O      13.39327      9.69015      9.16535        -0.188351      0.339964     -1.472558
O       5.78198      2.02575      0.49732         0.216177     -0.470873     -1.369998
O       5.70445      2.07847     13.58754        -0.043997     -0.233424      0.637475
O       5.62135     13.70242      0.52485        -0.082688     -0.224330     -0.627392
O       5.84560     13.52694     13.74548        -0.204121     -0.318230     -1.765965
O       5.87140      1.94819      5.03446        -0.274628      0.408735     -0.930358
O       5.64971     13.51917      4.89858         0.599735     -0.030971     -0.290688
O       5.72158      1.86306      9.15350        -0.251158      0.386633      0.142884
O       5.79606     13.37275      9.28194         0.059704      0.010309      0.298048
O       5.94829      5.98184      0.55418        -0.615897     -0.408566     -1.376657
O       5.86991      5.82045     13.64455        -0.097763      0.201096     -0.998877
O       5.77901      5.87748      4.94394         0.082569     -0.269414     -1.459608
O       5.78572      5.83430      9.26808        -0.030228      0.016626     -1.259356
O       5.75815      9.61431      0.63006        -0.137582     -0.028210     -2.328195
O       5.68718      9.68367     13.64290         0.142653     -0.148340     -0.933457
O       5.72044      9.60351      4.83236        -0.199934      0.297569     -1.819839
O       5.58428      9.73410      9.27166         0.587066     -0.030002     -0.863079
O       9.49803      2.00469      0.63778         0.051665     -0.183785     -2.104876
O       9.55476      1.99739     13.60013         0.032911      0.201068     -2.878966
O       9.59594     13.52799      0.57243        -0.107428      0.903180     -0.133430
O       9.42284     13.50418     13.66158         0.256589      0.330799      0.043427
O       9.36968      2.07242      4.87738         0.039761     -0.334892      0.454123
O       9.57257     13.57319      4.85838        -0.631831     -0.261610     -1.183299
O       9.74990      1.96803      9.33811        -0.002853     -0.131939     -1.067869
O       9.56466     13.38837      9.24238         0.196200      0.159065     -0.419390
O       9.59462      6.04197      0.58458        -0.152615     -0.808613      0.778620
O       9.63053      6.02277     13.74721         0.183303     -0.475571     -1.838102
O       9.57257      5.88011      4.85874        -0.253145      0.099419     -1.240696
O       9.63614      5.96495      9.22899        -0.109271     -0.555686     -0.644982
O       9.53555      9.74712      0.56152        -0.005476      0.392412     -0.626259
O       9.67732      9.76938     13.64637        -0.135922     -0.220387     -1.076754
O       9.72501      9.72185      4.73993        -0.640505      0.377197      0.545869
O       9.70487      9.60461      9.21793        -0.128400      0.515459     -0.500632
O       3.78309      1.99589      2.48246        -0.397484     -0.023569      0.806621
O       3.82658      1.96548     15.78433         0.256838     -0.164262      0.284229
O       3.79601     13.51113      2.85163        -0.293200      0.182793     -0.225960
O       3.84497     13.45382     15.77701        -0.780255      0.000410      0.075818
O      15.22778      2.11807      2.44510         0.802414      0.329739      1.051821
O      15.33934      2.04140     15.76119        -0.266416      0.338542      0.199378
O       0.06029     13.42747      2.61540        -1.817172     -0.140015      0.194947
O       0.01365     13.29810     15.75723         1.008277      0.461675      0.219868
O       3.84786      2.04048      7.12571        -0.748533     -0.204908      0.016866
O       3.81100     13.54960      6.96945        -0.663592     -0.275117      0.442174
O      15.32044      2.19654      7.10394         0.533777     -0.279134      0.538493
O      15.33358     13.64758      6.98199        -0.190181      0.652037      0.788086
O       3.85017      1.96977     11.55210         0.626619      0.067725     -0.744574
O       3.75422     13.40201     11.19628         0.460337     -0.045761      0.856047
O       0.07769      1.89315     11.26418        -1.137214      0.152492      0.603142
O       0.00941     13.49419     11.19421         0.087279     -0.260435      0.959024
O       3.82773      5.63501      2.59079         0.685574      0.405467      0.604515
O       3.84638      5.71788     15.61641         1.130820     -0.084069      0.978463
O      15.27894      6.01248      2.52528         0.707860     -0.897787      0.933902
O      15.35219      5.93765     15.83534        -0.456753     -0.238177      0.149039
O       3.88838      5.82753      6.87124        -0.733449     -0.330234      0.906669
O      15.34245      5.96224      7.05789         0.221243     -0.049108     -0.467624
O       3.80450      5.81991     11.27094         0.780317      0.381225      0.486664
O      15.24255      5.83099     11.43789         1.075116      0.906938     -0.557229
O       3.68260      9.37079      2.79312         2.347197      1.593833     -0.247486
O       3.81059      9.58497     15.71429         0.470691      0.206371      0.539122
O       0.00583      9.62870      2.40565         0.319021     -0.365499      0.850022
O      15.34018      9.86547     15.77178         1.047316     -0.593404      0.680977
O       3.81654      9.68511      6.99039        -0.694124     -0.287114     -0.025743
O       0.01608      9.57223      7.01610        -1.179178     -0.131584      0.098643
O       3.83273      9.70393     11.31759        -0.557611     -0.638260      0.620989
O      15.33577      9.64329     11.31426        -0.123644      0.160655     -0.213925
O       7.57268      2.05262      2.67481         0.307844     -0.581496      0.427551
O       7.68632      1.84450     15.64954        -0.237533      0.506319      0.742264
O       7.56043     13.65183      2.63824         0.284513     -0.588934      0.593019
O       7.68370     13.51676     15.78541        -0.270912      0.450466      0.952807
O       7.73184      1.96101      7.27649        -0.703744      0.043619      0.046379
O       7.58684     13.45537      7.14711         1.132135     -0.011236     -0.571718
O       7.62784      2.05850     11.31594        -0.043740     -0.147084      0.055316
O       7.66343     13.46434     11.41323         0.158703     -0.055007      0.115051
O       7.65869      5.83596      2.52105        -1.061662      0.012406      1.279016
O       7.75626      5.84666     15.68195        -1.078515     -0.302276      1.064230
O       7.69832      5.90419      6.96689         0.175162     -0.183556      0.653233
O       7.66954      5.75505     11.40977         0.006801      0.312225      0.162025
O       7.68136      9.74550      2.71681        -0.853721      0.160794     -0.041976
O       7.74658      9.76463     15.63855        -0.967022      0.140480      0.532227
O       7.68635      9.64665      6.91358         0.086452      0.861530      0.277147
O       7.66825      9.83422     11.30762         0.375083     -0.747855      0.161824
O      11.46458      2.05036      2.76821         0.110799      0.001294     -0.098039
O      11.40964      1.96559     15.71963         1.487414      0.068113      0.431151
O      11.47919     13.54704      2.61543         0.876304      0.176676      0.385084
O      11.50812     13.53940     15.74009         1.345647      0.403448      0.474233
O      11.47524      2.02236      6.82111         0.093596     -0.096141      1.199414
O      11.56501     13.50537      6.83601        -1.356597      0.313606      0.670146
O      11.44341      1.95197     11.49143         0.843143      0.331777      0.673015
O      11.54371     13.48761     11.44645        -0.197946      0.350062     -0.045447
O      11.51256      5.85453      2.82422        -0.601931      0.916356      0.007667
O      11.53191      5.99138     15.84898         0.137014     -0.508207      0.028536
O      11.45956      5.83438      6.93622         0.648935      0.344879      0.496599
O      11.49913      5.90114     11.42635        -1.605218     -0.719892      0.411761
O      11.54824      9.81459      2.71891        -0.099720     -0.223739     -0.101820
O      11.59862      9.80567     15.70893        -1.643069     -0.301496      0.295860
O      11.48297      9.75376      6.87016         1.953407     -0.008617      0.501401
O      11.54782      9.77001     11.48457        -1.169094     -0.198116     -0.296317
O       1.87032      3.72571      2.58070        -0.168560      0.858618      0.787101
O       1.81920      3.83003     15.80778         0.618695     -0.724680      0.289777
O       1.88865     15.33643      2.56769         0.183668      1.050373      0.594237
O       1.91282     15.35101     15.67764         0.094816     -1.477895      0.146215
O      13.21774      4.02051      2.67202         1.032220     -0.766455      0.013156
O      13.23583      3.93425     15.50277         0.603953     -0.157961      0.958175
O      13.36579      0.20335      2.56702         0.042395     -0.351158      0.488113
O      13.55998     15.43352     15.76384        -0.924145      0.301792      0.248135
O       1.94898      3.91110      7.08750         0.028096     -0.294804      0.110724
O       1.92741      0.07019      7.18372        -0.206858      0.431151     -0.010102
O      13.36969      4.01613      7.10556        -0.134268      0.098313      0.480803
O      13.40999     15.55185      6.97236         0.251565      0.108430      0.842246
O       1.99453      3.96228     11.40766        -0.168565     -0.536452     -0.069168
O       1.89041      0.13529     11.24679         0.718185     -1.518789      0.320879
O      13.39858      3.92909     11.47937        -0.601462      0.181379      0.141379
O      13.32738     15.48017     11.12515         0.380792      0.031013      1.241201
O       1.89458      7.60614      2.66613        -0.348800     -0.384641      0.259297
O       1.97854      7.56881     15.78295        -0.638435      1.899419      0.718345
O      13.46040      7.86474      2.71641        -0.423585     -0.393996     -0.101561
O      13.46725      7.81833     15.79043         0.069402      0.308707      0.180121
O       1.94785      7.65142      6.86991        -0.020425     -0.011958      0.260127
O      13.47907      7.84903      6.99341        -0.322977      0.267744     -0.284388
O       1.97492      7.70791     11.45829        -0.303516      0.243750     -0.337839
O      13.23643      7.78681     11.28811         0.852146      0.606039      0.180029
O       1.90893     11.55270      2.69359         0.454322     -0.823057      0.048971
O       1.83189     11.54852     15.74965         0.969424     -0.407994     -0.236457
O      13.48829     11.62774      2.53008        -0.215044      1.548800      0.793140
O      13.44342     11.62884     15.70865         0.023339      1.354922      0.640107
O       1.80898     11.55622      6.92158         0.388950      0.087458      0.462210
O      13.47122     11.77193      6.84294         0.249492     -1.586172      0.333063
O       1.83596     11.39563     11.13981        -0.239061      1.582106      0.642081
O      13.46011     11.63799     11.31278         0.578726      0.258334      0.355908
O       5.75440      3.88994      2.49555        -0.036910      0.910012      1.065740
O       5.79881      3.89137     15.68962         0.318673      0.192332      0.942393
O       5.65793      0.12466      2.81184        -0.117607      0.101145     -0.065688
O       5.79361     15.41794     15.65109        -0.599876      0.576215      0.823057
O       5.83171      3.86666      7.04878        -0.084583      1.363378      0.424023
O       5.71945     15.42355      7.01512         0.289277     -0.302055      0.398593
O       5.75328      3.90393     11.29157        -0.389986     -0.156505      0.319641
O       5.75295     15.40376     11.36838        -0.312624      0.046069      0.182729
O       5.76185      7.77501      2.68583        -0.149263     -1.272187      0.468029
O       5.88256      7.72829     15.70737        -0.504554      1.224036      0.468418
O       5.83399      7.88470      6.93758        -0.617530     -2.163330      0.691484
O       5.77896      7.74439     11.34278         0.182939     -0.182486      0.501867
O       5.61684     11.59584      2.52869        -0.168209      0.154289      0.506138
O       5.75198     11.60310     15.81583        -0.224896     -1.002730      0.563999
O       5.71932     11.58503      6.94518         0.031923      0.261457      0.394244
O       5.74919     11.57617     11.53847        -0.170156      0.060829      0.129988
O       9.61265      3.92694      2.64111        -0.415650      0.584397      0.422736
O       9.57479      3.93360     15.73192         0.170302     -0.428638      0.371319
O       9.61792     15.46385      2.70810        -0.139952      1.183930      0.295767
O       9.70122     15.44595     15.74103        -0.786972      0.983172      0.791067
O       9.54210      3.87299      6.89606        -0.015062      1.799644      0.923219
O       9.52088     15.39353      7.02114         0.265741      0.100481      0.367268
O       9.63080      3.92103     11.36660        -0.007956      0.094714      0.429812
O       9.55705     15.41152     11.48456        -0.001616     -0.352950     -0.314430
O       9.51630      7.86899      2.54561         0.332735     -0.933918      1.382806
O       9.56598      7.78687     15.78770         0.342322      1.299447      0.411785
O       9.57205      7.87857      6.92543         0.357014     -1.510382      0.496816
O       9.50570      7.75159     11.35929         0.156742      0.709179      0.505659
O       9.56284     11.72156      2.55642        -0.242647      0.177072      1.105900
O       9.60038     11.77567     15.75792         0.071898     -2.844284      0.782097
O       9.68181     11.60039      6.94505        -0.817999      1.485727      0.362123
O       9.65933     11.60203     11.47562        -0.315472     -0.226858     -0.258986
