  # total energy = -7881.06619827 
CRSYTAL
PRIMVEC
    15.3600000000000000    0.0000000000000000    0.0000000000000000
     0.0000000000000000   15.3600000000000000    0.0000000000000000
     0.2400000000000000    0.0000000000000000    17.440000000000000
PRESSURE
0.459667 0.086616 -3.28516 0.169379 -0.832355 0.103818
PRIMCOORD
320 1
Pb       3.92468      3.85070      4.33428        -0.192754     -0.087561     -0.437390
Pb       4.03117      3.78267     17.39917         0.528658      0.256161     -0.495264
Pb       3.87386     15.29883      4.38095         0.113821     -0.064463     -0.496579
Pb       3.74206      0.08076      0.04087         0.566697     -0.385607     -0.681171
Pb      15.41508      3.74230      4.28869         0.101552      0.264928      0.115030
Pb      15.59208      3.79408     17.39280        -0.352976      0.288395     -0.099709
Pb      15.33256      0.01451      4.33194         0.305964     -0.337582     -0.284719
Pb      15.41684     15.28034     17.42192         0.137217      0.175673     -0.599941
Pb       3.94369      3.89867      8.66642         0.768356     -0.711235     -0.286988
Pb       3.85117     15.27399      8.70496         0.174644      0.464250     -0.214094
Pb       0.24673      3.85778      8.72250        -0.645513     -0.053384     -0.362968
Pb      15.37842      0.03166      8.75885         0.394735     -0.438738     -0.752995
Pb       3.95024      3.94488     13.01057         0.280227     -1.255952      0.275450
Pb       4.00604     15.28127     13.19266         0.005919      0.266874     -0.417851
Pb       0.20587      3.79671     13.03025        -0.063918     -0.641997      0.144882
Pb      15.47694     15.28451     13.14193         0.003767      0.411584     -0.049997
Pb       3.84391      7.56226      4.29010        -0.278339      0.366414     -0.121932
Pb       4.00149      7.48259     17.37796         0.470178     -0.032424     -0.242592
Pb      15.38254      7.58526      4.30171        -0.127161      0.397704     -0.298757
Pb      15.55885      7.62565     17.26153        -0.362592     -0.084261      0.446064
Pb       3.93286      7.68723      8.67106         0.263341      0.049754      0.033774
Pb       0.15640      7.69257      8.75822        -0.104741      0.207682     -0.283380
Pb       4.12612      7.62781     12.98401        -0.433754      0.380760     -0.239847
Pb      15.37197      7.60911     13.11806         0.484222      0.372163      0.285636
Pb       3.82481     11.44462      4.26479        -0.062773      0.330675     -0.051765
Pb       3.89252     11.50181      0.13634         0.208044      0.245485     -0.840935
Pb       0.11351     11.55211      4.21413        -0.112128      0.052384      0.223601
Pb      15.58204     11.48449     17.37239        -0.355735     -0.010005      0.033701
Pb       3.94865     11.51288      8.67695        -0.128430      0.071067      0.225685
Pb      15.45296     11.38216      8.68705         0.165308      0.552658      0.072748
Pb       3.88972     11.46841     13.12953         0.550009      0.353108     -0.063285
Pb      15.38484     11.54619     13.15852         0.250800      0.097788     -0.086328
Pb       7.67654      3.76673      4.39176         0.240358      0.047697     -0.574328
Pb       7.76862      3.86048      0.01475        -0.842044      0.257350      0.023268
Pb       7.78810      0.07725      4.33507        -0.230310      0.050880     -0.483783
Pb       8.04386      0.12424     17.42281        -0.790575      0.099903      0.122659
Pb       7.75298      3.88390      8.66735         0.011321     -0.456458     -0.463433
Pb       7.79425     15.24410      8.60791        -0.122534      0.016685      0.357438
Pb       7.75028      3.73701     13.01803         0.069776      0.034550     -0.001241
Pb       7.72334      0.05906     12.94905         0.178892     -0.242668     -0.024316
Pb       7.73645      7.70151      4.38946         0.513318      0.065354     -0.445346
Pb       7.71500      7.62299      0.00963        -0.089760     -0.029689     -0.193575
Pb       7.79587      7.69668      8.70761         0.026848     -0.178379     -0.580769
Pb       7.84820      7.71683     12.97348        -0.320765     -0.075138     -0.303972
Pb       7.67888     11.46247      4.25435         0.383986      0.099974      0.005578
Pb       7.68048     11.53296      0.07211        -0.386474     -0.242458     -0.309726
Pb       7.76972     11.48198      8.64832        -0.083050      0.059639     -0.119709
Pb       7.79799     11.46758     13.08823        -0.170241      0.135186     -0.361976
Pb      11.55461      3.69440      4.42017        -0.169889      0.684136     -0.614513
Pb      11.65374      3.72748     17.37586         0.382521      0.176659     -0.281651
Pb      11.62606     15.30440      4.30522        -0.193052     -0.126298     -0.301747
Pb      11.68829     15.35522     17.33839         0.305318      0.265085     -0.239274
Pb      11.61913      3.82909      8.74016        -0.159659      0.369979     -0.723519
Pb      11.67755     15.30304      8.70131         0.043875     -0.402185     -0.264061
Pb      11.58630      3.86306     13.00384         0.120728      0.102991      0.186650
Pb      11.60391     15.28254     13.00804         0.223522      0.096907      0.650971
Pb      11.64672      7.69457      4.42861         0.001663     -0.410026     -0.790249
Pb      11.81060      7.63085     17.41193        -0.024628      0.277489     -0.136449
Pb      11.75094      7.77529      8.73823        -0.036927     -0.279179     -0.606198
Pb      11.53888      7.78647     13.06272         0.600362     -0.602700     -0.162270
Pb      11.56986     11.52077      4.32526        -0.206914     -0.030697     -0.598585
Pb      11.40947     11.51344      0.00418         0.621627      0.012491      0.066545
Pb      11.67844     11.51451      8.58675        -0.012474     -0.269599      0.836346
Pb      11.58157     11.50805     13.03571         0.461917      0.375516     -0.107618
Ti       1.99952      1.87911      2.24737        -0.769343     -0.075747     -0.180801
Ti       2.08484      1.85659     15.43379         1.265501      0.569353     -1.157145
Ti       1.94207     13.41549      2.17939        -0.142938      0.223257      0.432823
Ti       2.15808     13.37696     15.50589         0.283571      0.487876     -1.342088
Ti      13.46892      1.89237      2.27187         0.580953      1.051082     -1.535686
Ti      13.66600      1.94226     15.29351        -0.899528      0.600070      1.485408
Ti      13.49039     13.41602      2.19904        -0.362105     -0.054564     -1.106477
Ti      13.56889     13.46763     15.41989         0.368595      0.084720      0.198574
Ti       1.93959      1.96388      6.65353         0.721975     -1.570643      0.415572
Ti       2.01192     13.42388      6.65987        -1.085813     -0.393133     -1.013167
Ti      13.51592      1.97379      6.64293         0.356712     -0.635676      0.335232
Ti      13.52664     13.43031      6.66618         2.088303     -0.115244     -0.450253
Ti       2.05939      1.87465     10.98719         0.316860      0.301208      0.796208
Ti       2.09520     13.48164     11.13406         0.349637      0.057855     -0.010051
Ti      13.55890      1.92134     10.94732         0.466629     -1.214981      0.933168
Ti      13.67004     13.45819     11.12947        -1.089453     -0.348672     -0.673776
Ti       1.91095      5.77024      2.27884        -0.304780     -0.511599      0.303465
Ti       2.13295      5.73783     15.30113        -0.167541     -0.674495      0.578459
Ti      13.50334      5.70929      2.23053        -0.498284      0.598432     -0.118728
Ti      13.64546      5.73663     15.37963        -0.525206     -0.016998      0.301747
Ti       2.03839      5.72542      6.67253        -0.168788      0.441135     -0.503656
Ti      13.60607      5.78092      6.63224        -0.437569      0.456973     -0.602806
Ti       2.04184      5.74005     11.07492         0.742474      0.925984     -0.302834
Ti      13.67959      5.68269     11.02455        -2.646033      0.685317     -0.103201
Ti       1.89634      9.59542      2.18011        -0.183926     -0.814571     -0.887957
Ti       2.10064      9.60912     15.43270         0.090488      0.217438     -0.460210
Ti      13.43633      9.61346      2.31487         0.004344     -1.007673     -1.084588
Ti      13.60616      9.69166     15.41608        -0.449293     -0.669545     -0.270260
Ti       2.04268      9.55106      6.70936        -0.439176      0.819073     -0.551574
Ti      13.63783      9.58698      6.53762        -0.623226     -0.776877      0.321910
Ti       2.05739      9.65151     11.11260         0.011727     -0.714092     -1.903206
Ti      13.62638      9.55693     11.11608        -0.485934      0.613412     -0.472665
Ti       5.75185      1.93599      2.30426         1.306640      0.330751     -0.350297
Ti       5.96758      1.83964     15.44063        -0.608168      1.202216     -0.711360
Ti       5.71659     13.50712      2.27898         0.698894     -0.069145      0.344022
Ti       6.02328     13.39648     15.40359        -1.726551      0.036256     -0.620009
Ti       5.85375      1.84101      6.65426        -0.211599      0.122253      0.422940
Ti       5.85065     13.41511      6.56485         0.084861      0.346548     -0.864626
Ti       5.85617      1.93745     10.94860        -0.507239     -0.442071     -1.748450
Ti       5.90267     13.38810     11.05450        -0.352928      0.190685     -0.215775
Ti       5.82742      5.82539      2.39557         0.115596     -1.464588     -1.629775
Ti       5.95118      5.70962     15.27494        -0.003688     -0.825100      0.134266
Ti       5.91055      5.73296      6.48147         0.481325      0.023007      0.595023
Ti       5.92591      5.68132     10.95127        -0.157642      1.162866     -0.305129
Ti       5.78322      9.65067      2.29643         0.403222     -0.082104      0.619815
Ti       5.88886      9.58896     15.41118         0.846610      0.376275     -0.633338
Ti       5.79104      9.63948      6.60929         0.853730     -0.372488     -0.053793
Ti       5.89630      9.62126     10.96836        -0.330377      0.057229      0.520587
Ti       9.70292      1.92905      2.26805        -1.352061     -0.148437     -0.539693
Ti       9.75012      1.88761     15.28615         0.589453      1.249308     -0.079292
Ti       9.56186     13.42295      2.31035         0.416498      0.023590      0.464706
Ti       9.70915     13.46664     15.40458         0.786400     -0.236002     -2.096941
Ti       9.70090      1.81381      6.67643        -0.279820      0.554540     -0.316983
Ti       9.72195     13.34865      6.63324        -0.438171     -0.169694      0.145388
Ti       9.83213      1.89001     10.99127        -1.675215     -0.234788      0.689539
Ti       9.77629     13.40385     11.05060         0.012201      0.301943     -0.906522
Ti       9.64906      5.70213      2.47834         0.107350      0.250573     -0.600927
Ti       9.80138      5.73523     15.35289         0.087564      0.999724     -1.027873
Ti       9.74358      5.74406      6.65776        -0.103088     -0.447726     -0.591915
Ti       9.73698      5.79083     11.00710        -0.121084     -0.538602     -0.494798
Ti       9.69139      9.56401      2.29229        -0.212969     -0.395001      2.888707
Ti       9.81303      9.63301     15.41406        -0.282656     -0.251238      0.376165
Ti       9.71521      9.55721      6.68574        -0.354599     -0.187229     -1.116442
Ti       9.80303      9.59293     10.93032        -0.457368      0.555376     -0.773923
O       2.06229      1.86153      0.42090        -0.557577      0.144126      1.671605
O       2.31433      2.06557     13.63509        -0.983649     -0.337205      1.084522
O       1.80116     13.32117      0.41122         0.444081      0.374466     -0.185868
O       2.19615     13.36596     13.68692        -0.174952      0.212699      0.250657
O      13.41243      2.00318      0.43071         0.105238     -0.429198      1.941805
O      13.52686      1.86368     13.58339         0.437287      0.472679     -0.801229
O      13.40639     13.51036      0.28282         0.201200      0.241645      2.452037
O      13.62161     13.43305     13.63684         0.039867     -0.109641      0.090723
O       1.98119      1.99039      4.89382        -0.226105     -0.445018     -0.255660
O       1.96074     13.35601      4.82056         0.039125      0.232880      1.099372
O      13.59526      1.83850      4.86975        -0.174072      0.140278     -0.297802
O      13.55257     13.38396      4.86796         0.044057      0.199870      0.287921
O       1.99865      1.80891      9.22312         0.010633      0.317666     -0.199164
O       2.06710     13.63967      9.38643        -0.002800     -0.368768     -0.389293
O      13.52043      1.83759      9.15661        -0.181998      0.239185      0.370345
O      13.56622     13.48791      9.32050         0.045211     -0.086406      0.664843
O       1.85704      5.74193      0.51791         0.513805      0.336750      0.091201
O       2.19388      5.76921     13.53296        -0.490902     -0.471995     -0.309909
O      13.58513      5.74057      0.40229        -0.561396      0.004226      1.087993
O      13.68504      5.71897     13.60736        -0.121602     -0.054050     -0.203044
O       2.06380      5.78618      4.90299        -0.203089     -0.241084      0.451359
O      13.68008      5.90953      4.83356        -0.386816     -0.350669      1.178306
O       1.97789      5.80417      9.27704         0.133077     -0.385841      0.260351
O      13.54994      5.68940      9.24578         0.427023      0.252486      0.579446
O       1.95284      9.60089      0.36904        -0.063480     -0.214468      0.713237
O       2.11368      9.72224     13.66433        -0.218983     -0.343549     -0.153944
O      13.23443      9.58745      0.50462         0.475345      0.113905      1.154970
O      13.57314      9.70607     13.59514         0.097454     -0.082091      0.504516
O       2.00148      9.67988      4.94840         0.136438     -0.205117     -0.196109
O      13.62630      9.39989      4.72719        -0.095347      0.990782      1.419781
O       2.00837      9.58124      9.22475         0.334610     -0.184400      1.434364
O      13.57867      9.56668      9.32520         0.012162     -0.365328      0.349166
O       5.75400      1.77179      0.51400        -0.161240      0.451264      0.507491
O       5.91169      1.96272     13.63282         0.196833     -0.224680      0.779082
O       5.65345     13.30217      0.54227         0.330228      0.554475     -0.302575
O       5.85662     13.33786     13.57853         0.643866      0.177328      0.798770
O       5.98953      1.77111      4.83368        -0.396002      0.244447      0.934341
O       5.82509     13.46028      4.72854        -0.068459      0.148900      1.598860
O       5.74967      1.98445      9.04691         0.472102     -0.033280      2.000067
O       5.90038     13.27722      9.27981        -0.324057      0.302411      0.335326
O       5.73368      5.78722      0.55724        -0.136531      0.394085      0.936356
O       5.91775      5.64227     13.44003         0.014048      0.613209      1.350690
O       5.90859      5.74695      4.65800        -0.492925      0.063766      1.979693
O       5.89152      5.67446      9.14060         0.109308     -0.029061      0.512827
O       5.91504      9.65183      0.55169        -0.499832     -0.150827     -0.015190
O       5.87492      9.70103     13.58972         0.570399     -0.464132      1.377671
O       5.75823      9.63035      4.80739         0.080788      0.234490      0.857486
O       5.79615      9.69413      9.18381         0.436917     -0.287769      0.165765
O       9.52030      1.98700      0.38687         0.627375     -0.244179      1.751727
O       9.70267      1.88753     13.49780         0.012937      0.289831      0.961721
O       9.69105     13.64133      0.57171        -0.209748     -0.510293     -0.725375
O       9.71906     13.43206     13.54149        -0.193377     -0.341656      1.863410
O       9.66087      1.91049      4.86618         0.204047     -0.283372      0.709900
O       9.67719     13.34981      4.87032         0.380157     -0.073911     -0.258993
O       9.68087      1.89737      9.20067         0.809180     -0.157278      0.897176
O       9.98513     13.51335      9.23462        -0.559432     -0.230474      1.019896
O       9.49881      5.58665      0.70534         0.364341      0.432114     -0.351854
O       9.79918      5.87966     13.52067        -0.199093     -0.148718      1.264863
O       9.66536      5.71546      4.85071         0.324532     -0.100017      0.198839
O       9.64756      5.76892      9.19271         0.318126     -0.367714      0.827692
O       9.65978      9.52178      0.61806         0.166113      0.154148     -2.678996
O       9.82518      9.76977     13.60559        -0.155716     -0.717508      0.698157
O       9.54421      9.64160      4.86493         0.748119     -0.300316      1.288766
O       9.75313      9.44111      9.11221        -0.184753      0.285806      1.056097
O       3.94943      1.96517      2.78335        -1.756177     -0.121304     -0.227845
O       3.99895      1.88301     15.89942         0.693072     -0.058370     -0.106428
O       3.85054     13.47045      2.64634        -0.670808     -0.262718      0.131692
O       4.11183     13.35304     15.76710        -0.589577     -0.205685      0.458366
O       0.06721      1.87768      2.62290         0.388581     -0.483196      0.107389
O       0.24245      1.96627     15.77697        -0.616251     -0.413349     -0.260751
O       0.08972     13.55877      2.62140        -0.935222     -0.586457      0.068569
O      15.49404     13.46407     15.65426         0.417553      0.208525      0.572940
O       3.85915      1.90385      7.00389         0.804522     -0.240864     -0.246714
O       3.97043     13.49643      6.93938        -0.320275     -0.000110      0.261732
O      15.40012      1.90333      7.07710         0.337322      0.160485      0.152193
O       0.10201     13.21736      7.10550         0.124114      0.535372     -0.170564
O       4.04435      1.93522     11.37388        -0.970292      0.526116     -0.145814
O       3.97938     13.49760     11.50963         0.011770      0.027047     -0.191528
O      15.42577      1.87482     11.44622         0.371969      0.379406     -0.268015
O       0.19770     13.50395     11.64202        -0.132217     -0.129559     -0.397745
O       3.86453      5.69290      2.79532        -0.541451      0.389917     -0.344917
O       4.07124      5.67178     15.74781        -0.623282      0.193451      0.072528
O      15.35232      5.92377      2.61820         1.133976     -0.599039      0.217897
O      15.51555      5.73733     15.72418         1.256469      0.423199     -0.229533
O       4.06750      5.69028      6.96089        -0.678231     -0.337000      0.032415
O       0.15438      5.73776      7.06636         0.362859      0.050362      0.172292
O       3.92085      5.69905     11.35425         0.530182      0.444301     -0.239488
O      15.45651      5.73729     11.49402         1.085947     -0.163807     -0.167115
O       3.84769      9.74905      2.54362         0.384864     -0.781785      0.140626
O       4.07147      9.80337     15.70186        -0.530931     -0.258003      0.454528
O      15.39337      9.56790      2.48281         0.111264     -0.014654      0.360848
O      15.48312      9.58934     15.77627         1.342610      0.362178     -0.032049
O       3.89065      9.57394      7.10379         1.703741     -0.109274     -0.097598
O       0.14197      9.59677      7.08998        -0.154537     -0.349092     -0.122486
O       4.02088      9.57099     11.42559        -0.619599     -0.217711     -0.136929
O      15.45349      9.52324     11.30482         1.487805      0.377226      0.842006
O       7.84331      1.95047      2.72210        -0.699808     -0.588947     -0.209547
O       7.87323      2.05179     15.86862         0.334492     -0.782228     -0.666681
O       7.70867     13.44673      2.54437         0.336010      0.143097      0.283857
O       7.87945     13.46546     15.85115         1.157305      0.115362      0.136108
O       7.84237      1.68305      7.12503        -0.301655      0.897699     -0.585912
O       7.77211     13.23707      7.03847         0.489223      0.557536     -0.098915
O       7.72355      1.91103     11.47702         1.154636      0.314261     -0.538835
O       7.80065     13.48567     11.27967         0.270969     -0.486805      0.424213
O       7.66980      5.66860      2.72174         1.246028      0.246099      0.282512
O       7.81186      5.64963     15.76625         0.558694      0.953638     -0.244168
O       7.85280      5.55908      6.86826        -1.278462      0.486075      0.470313
O       7.78472      5.75561     11.32557         0.968252      0.209974      0.192038
O       7.83664      9.72984      2.66633        -2.163564     -0.628375      0.207235
O       7.94640      9.57295     15.85328        -0.339425      0.024037     -0.347152
O       7.79894      9.69866      6.94608        -1.134071     -0.381293      0.540995
O       7.92391      9.69938     11.52852        -0.761263     -0.627210     -0.738323
O      11.60534      1.96865      2.68784         0.423161     -0.158529      0.176066
O      11.66156      1.97392     15.77923         0.109673      0.041039     -0.368930
O      11.68805     13.32214      2.69153        -0.536115      0.677749      0.099553
O      11.64715     13.50171     15.71491         0.003421      0.286451      0.249449
O      11.63256      1.74564      6.92090         0.301666      0.268037      0.467706
O      11.73297     13.31484      7.08148        -1.559123      0.351398     -0.297029
O      11.65836      1.84123     11.50191        -0.008137      0.345600     -0.976709
O      11.70157     13.41419     11.58570        -0.287961      0.123994     -0.654377
O      11.65943      5.61925      2.73021        -0.598057      0.174191      0.051482
O      11.70973      5.85659     15.66299        -0.168117     -0.310986      0.294263
O      11.65053      5.91114      6.95127         0.471950     -0.768733      0.306795
O      11.60888      5.81641     11.36048         0.604020     -0.413260      0.062350
O      11.58048      9.58187      2.83687        -0.169454      0.366229      0.010063
O      11.73145      9.52584     15.85420        -0.522238      0.563263     -0.290169
O      11.67589      9.44480      6.97559         0.159148      0.064445     -0.240978
O      11.67534      9.65796     11.32953        -0.558430     -0.422093      0.457091
O       1.82823      3.80248      2.71648         0.762835      0.298034     -0.415537
O       2.06539      3.89972     15.87040         0.472051     -0.570069     -0.401116
O       2.00977     15.29636      2.54497         0.294287      1.292731      0.251203
O       2.18270     15.30767     15.69768        -0.321047      0.439847      0.427488
O      13.69812      3.83242      2.78606        -0.895549     -0.359423     -0.654290
O      13.66570      3.84185     15.76428        -0.234039      0.150790     -0.185224
O      13.51777      0.01657      2.65478        -0.310769     -0.507732     -0.008158
O      13.60056      0.12196     15.77392         0.258518     -1.333784      0.087378
O       1.98307      3.78896      7.10962         0.210239      1.112843      0.145244
O       1.87329     15.30098      7.11948         0.462731      0.122504     -0.453298
O      13.63346      3.87477      6.94077        -0.885255     -0.381340      0.305458
O      13.61423     15.28626      6.99583        -0.052824      0.216411      0.161755
O       2.02756      3.79204     11.41545        -0.315393      0.825773     -0.199468
O       2.09126      0.12917     11.51708        -0.070261     -1.502954      0.403968
O      13.50664      3.76440     11.24473         0.059793      0.995210      0.499250
O      13.58246     15.33021     11.51312         0.014707      0.430294     -0.329573
O       1.93596      7.65254      2.76581         0.945497      0.604013     -0.552277
O       2.19693      7.59643     15.65103        -0.088243      1.245268      0.531023
O      13.40226      7.69646      2.71731         0.185062     -0.464738     -0.370452
O      13.69328      7.78827     15.79909        -0.266153     -1.250259     -0.278527
O       2.14853      7.60281      7.09789        -0.445825      0.203699     -0.074004
O      13.66296      7.66136      7.17437         0.055272      0.541538     -0.394686
O       2.10479      7.73594     11.47902        -0.363452     -0.890152     -0.024834
O      13.61702      7.64116     11.65067        -0.594168     -0.044266     -0.989242
O       1.87049     11.46888      2.59045         0.304612      0.633712      0.157421
O       2.00724     11.51818     15.79732         0.143048     -0.692681      0.164073
O      13.54952     11.54826      2.63372         0.260534      0.068024      0.010846
O      13.59713     11.56881     15.94672        -0.172951     -0.228386     -0.866591
O       2.11646     11.50500      7.10455        -0.089494      0.093689      0.070476
O      13.56750     11.39058      7.15756        -0.142825      0.037971     -0.859086
O       2.08634     11.56880     11.33846        -0.196797     -0.700540      0.365857
O      13.64444     11.55522     11.52342         0.100143     -0.462108     -0.210609
O       5.82127      3.85487      2.72767        -0.148420     -0.836873      0.166999
O       5.87930      3.77336     15.81758         0.085331      0.739838     -0.255249
O       5.78585      0.07323      2.67695         0.108305     -0.852101      0.222594
O       5.99279     15.30934     15.74913         0.090666      0.387939      0.099317
O       6.02989      3.72401      6.96963        -0.679167      0.718323     -0.485978
O       5.93654     15.30914      7.09371        -0.307920     -0.711882     -0.385899
O       5.92958      3.90790     11.34883        -0.109146     -1.463219     -0.005151
O       5.87881      0.05926     11.37358         0.039213     -0.874434     -0.057349
O       5.85731      7.67640      2.76598        -0.347450      1.579008     -0.272112
O       5.76684      7.66387     15.70839         0.773215      0.157400     -0.181891
O       5.93259      7.66181      6.99590         0.003380      0.014630     -0.367389
O       5.96588      7.68289     11.32758        -0.079142      0.075223      0.272210
O       5.75244     11.61381      2.66446         0.344637     -1.507050      0.214716
O       6.16581     11.56081     15.94524        -0.512052     -1.087603     -0.444913
O       5.82584     11.54966      7.10655        -0.402594     -0.836362     -0.592443
O       5.77204     11.42706     11.48043         0.931635      1.304280     -0.342617
O       9.71739      3.74574      2.73213         0.071707      0.437653      0.430174
O       9.83043      3.91153     15.74122        -0.036438     -0.275536     -0.195979
O       9.77825     15.35074      2.70827        -0.041650     -0.049748      0.126507
O       9.78202      0.09307     15.68944        -0.263058     -1.494045      0.326816
O       9.81640      3.70614      7.08594         0.092896      0.643954      0.002042
O       9.66218     15.18948      6.97708         0.594941      0.409323      0.188357
O       9.75593      3.80096     11.57356        -0.024863      0.159573     -1.275289
O       9.72506     15.34046     11.54204         0.077438      0.510166     -0.954952
O       9.61257      7.61378      2.73545         0.198730      0.191500      0.165277
O       9.83171      7.72600     15.98198        -0.367038     -0.892985     -0.893202
O       9.57535      7.57956      7.12039         0.054507      0.918786     -0.444017
O       9.74706      7.71078     11.38805        -0.282670      0.064760      0.162878
O       9.69359     11.49078      2.64758         0.326010      1.078630      0.118853
O       9.91039     11.55293     15.88050        -0.728403     -0.052734     -0.343180
O       9.77132     11.42213      7.10035         0.376726      0.649458      0.011518
O       9.75857     11.52810     11.26808         0.108698     -0.215281      0.270106
