  # total energy = -7882.02232358 
CRSYTAL
PRIMVEC
    15.3600000000000000    0.2300000000000000    0.0000000000000000
     0.0000000000000000   15.3600000000000000    0.0000000000000000
     0.0000000000000000    0.0000000000000000    17.440000000000000
PRESSURE
2.36517 2.37906 1.6287 -0.095666 0.201996 -1.59308
PRIMCOORD
320 1
Pb       3.81191      3.90537      4.37423         0.540594      0.407759      0.192939
Pb       3.84865      3.68968      0.05997        -0.186301      0.788444      0.286488
Pb       3.95569     15.40419      4.25972        -0.191264     -0.697050      0.438828
Pb       3.94704     15.36045      0.08526        -0.670018      0.174427      0.315666
Pb      15.29828      4.13393      4.28762        -0.143161      0.054092      0.672371
Pb       0.00515      3.75568     17.43687         0.109893      0.322485      0.139930
Pb       0.03472     15.17507      4.35189        -0.078468      0.564440     -0.315606
Pb       0.01955      0.02935     17.36744        -0.160303     -0.021640      1.051985
Pb       3.82873      3.72827      8.62011        -0.124990      0.536660      0.062446
Pb       3.91199      0.07188      8.55196        -0.819370     -0.270993      0.172755
Pb      15.28684      3.86205      8.56078         0.396063      0.251757      0.649619
Pb      15.34545     15.50854      8.64214         0.069430     -0.042768      0.522616
Pb       3.66178      3.73442     13.00521         0.720615      0.166613      0.184769
Pb       3.81038     15.29351     13.00129         0.063453      0.812863      0.633734
Pb      15.32277      4.04772     12.97071        -0.407440     -0.256953      0.102114
Pb       0.00604     15.34382     13.04087        -0.646199     -0.190764     -0.073918
Pb       3.73657      7.76206      4.37869         0.760553      0.135218      0.214520
Pb       3.82424      7.64731     17.35320        -0.121331     -0.213776      0.496255
Pb       0.04612      7.88402      4.41553        -0.367523     -0.610241      0.237987
Pb      15.28110      8.01016     17.41240         0.150334     -0.794415     -0.035986
Pb       3.86845      7.70865      8.77836         0.293811     -0.015664     -0.137127
Pb       0.12236      7.55503      8.83320        -0.287071     -0.289585     -0.622072
Pb       3.64511      7.63783     13.12881         0.587337      0.467384     -0.246889
Pb      15.33549      7.89053     13.05658         0.271610      0.087888     -0.216311
Pb       3.67265     11.63562      4.24765         1.350442     -0.403469      0.660730
Pb       3.69694     11.58428     17.37553         0.396822      0.017203      0.380848
Pb      15.26575     11.80716      4.33000         0.281671     -0.364891      0.103375
Pb      15.18293     11.70967     17.41428        -0.022609      0.613282     -0.176143
Pb       4.02777     11.58039      8.69141        -0.606227     -0.216888      0.239540
Pb       0.12450     11.47155      8.82024        -0.222765      0.332336      0.109202
Pb       3.71650     11.52160     13.03903         0.668867     -0.323504      0.847835
Pb      15.35630     11.70379     13.12001        -0.093559      0.024992     -0.076154
Pb       7.73707      4.00732      4.27142        -0.045007     -0.084225      0.199629
Pb       7.74835      3.80710     17.34397        -0.251034      0.494309      0.290158
Pb       7.79362     15.39797      4.24446        -0.363099      0.208819      0.517768
Pb       7.67045      0.13888     17.32303         0.239035      0.037020      0.570466
Pb       7.55038      3.91547      8.61548         0.081917      0.046326      0.709462
Pb       7.55284     15.41227      8.53494         0.650863      0.238552      0.851906
Pb       7.53162      3.94976     13.02142         0.752765      0.575908     -0.061822
Pb       7.62256      0.24269     12.97621         0.855973     -0.182655      0.296740
Pb       7.73859      7.78890      4.29786        -0.735188     -0.379984      0.094482
Pb       7.51860      7.80540     17.25332         0.133983     -0.184056      1.013293
Pb       7.64191      7.64215      8.71972        -0.229123      0.237372      0.861379
Pb       7.68015      7.87704     13.08258         0.154843     -0.544941     -0.230043
Pb       7.59517     11.51522      4.18159        -0.211529      0.207459      0.147927
Pb       7.68730     11.56752     17.24823        -0.028437      0.240298      0.960615
Pb       7.72756     11.51186      8.67276        -0.059155      0.576262      0.244261
Pb       7.67757     11.79033     13.03078        -0.479890     -0.935792      0.879857
Pb      11.46974      4.00062      4.36897        -0.200778      0.065733      0.328972
Pb      11.64535      4.15261     17.43831        -0.238222     -0.621125      0.482977
Pb      11.58573     15.41581      4.21690        -0.508547      0.572857      1.228950
Pb      11.59017      0.28363     17.42468        -0.171776     -0.643743      0.427442
Pb      11.51053      4.03798      8.62336        -0.401633     -0.302510      0.294919
Pb      11.38495     15.52701      8.65198         0.194835     -0.356970      0.043195
Pb      11.56032      4.23626     13.04094        -0.607663     -0.988983      0.348997
Pb      11.43220      0.21465     12.94413        -0.149225      0.006694      0.163497
Pb      11.47992      7.90721      4.40311         0.387454     -0.610067      0.011432
Pb      11.44805      7.92236     17.34189         0.604585     -0.109100      0.674787
Pb      11.50285      7.86820      8.75919         0.139786     -0.227596     -0.347870
Pb      11.60831      7.96289     12.95074        -1.020505     -0.200804      0.848734
Pb      11.45619     11.49883      4.40290        -0.054896      0.449271     -0.084123
Pb      11.41757     11.79256     17.27281         0.631415     -0.023530      0.326070
Pb      11.61572     11.65674      8.64100        -0.684475      0.598742      0.482400
Pb      11.40134     11.81861     12.97283         0.539366     -0.685500      0.389260
Ti       1.96188      2.01463      2.60210        -0.707641     -1.520866     -1.891782
Ti       1.87018      1.89412     15.39505         0.294354      0.786025      0.767860
Ti       1.87552     13.44066      2.30306         0.453494      0.802198      0.272582
Ti       1.85072     13.50066     15.43413         0.634381     -1.077640     -0.742685
Ti      13.44498      2.08715      2.48962         0.092812      0.144179     -0.755107
Ti      13.33818      2.11846     15.38036         1.074588      0.227615      0.970203
Ti      13.33964     13.58246      2.35127         0.674312      0.105253     -2.209933
Ti      13.46251     13.67487     15.34823        -1.009625     -0.467077      0.394910
Ti       1.87755      1.83925      6.58340         0.314536     -0.467222      0.691813
Ti       1.88501     13.30192      6.66742         0.770402      1.820053     -0.085070
Ti      13.37878      2.03830      6.70095        -0.078047     -0.676073      0.064316
Ti      13.48840     13.55784      6.76568        -1.342507      1.116799      0.201925
Ti       1.83443      1.85062     11.02501         0.492012      0.193557     -0.158530
Ti       1.87384     13.43803     11.16601        -0.592650     -0.805513     -1.633481
Ti      13.38031      1.98751     10.96439         0.288584      0.986846     -0.414611
Ti      13.40530     13.55950     11.03632         0.136744      0.498269     -0.665975
Ti       1.85298      5.83986      2.38501         1.088181      0.002074     -1.628049
Ti       1.95023      5.74391     15.45671        -0.492188     -0.406496      1.126009
Ti      13.39975      5.93567      2.42553        -0.104386      0.784238     -0.518955
Ti      13.47688      5.98524     15.46328         0.542748     -0.352844      0.735419
Ti       1.93861      5.71862      6.70309        -0.244942     -0.225563      2.411302
Ti      13.41527      5.89234      6.71936         0.629956      0.940570     -0.169316
Ti       1.95141      5.69092     11.06566        -0.685434      0.431666      0.544997
Ti      13.48315      5.94449     11.01464        -0.773706     -0.723061      0.830995
Ti       1.89676      9.60909      2.30562         0.587814      0.521714      1.431402
Ti       1.85275      9.62888     15.40405         0.282723      0.407967     -0.667426
Ti      13.46628      9.80751      2.36071        -1.297977     -0.640632     -0.739615
Ti      13.43484      9.73411     15.29029        -0.329559      1.570513      1.233677
Ti       1.91559      9.58296      6.86275         0.220821     -0.002710     -1.783867
Ti      13.44798      9.74546      6.76431         0.008094     -0.362322     -0.813025
Ti       1.98235      9.62329     11.06819         0.275491     -0.392695      0.092405
Ti      13.49081      9.78923     11.03601        -0.173160      0.414860      0.941306
Ti       5.79482      2.03335      2.46607         0.400633     -0.502391      0.014953
Ti       5.64492      1.95855     15.37084         1.195571      0.871279      0.845608
Ti       5.76253     13.51503      2.26681        -0.019969     -0.821933      0.649573
Ti       5.71841     13.53227     15.51511         0.250516     -0.919434     -0.328918
Ti       5.76139      1.99423      6.59415        -0.597473     -0.032101     -0.466403
Ti       5.73428     13.43695      6.64176        -0.206416      1.216461      0.230796
Ti       5.70513      2.03395     11.00216        -0.077027      0.119376     -0.490524
Ti       5.67982     13.50033     11.16105         1.111991     -0.185328      0.211095
Ti       5.65749      5.83182      2.27466         0.611846      0.367219      2.043554
Ti       5.74938      5.77216     15.35732         0.142248      0.007479     -0.443235
Ti       5.76055      5.82867      6.60286        -0.816830     -0.083644      0.988246
Ti       5.63557      5.81592     11.04502         2.207780     -0.312873     -0.365533
Ti       5.71387      9.57767      2.34099        -0.420802      1.041215     -0.524396
Ti       5.60306      9.68660     15.40377         1.255589      0.084249     -1.550528
Ti       5.75276      9.62997      6.69923        -0.364057     -0.481772     -0.114437
Ti       5.75987      9.61941     11.11463        -0.129659      0.120362     -0.600852
Ti       9.60334      2.03543      2.34018         0.319163     -0.029659     -0.881379
Ti       9.61737      2.06617     15.36543        -0.237057      0.977930     -1.013902
Ti       9.56165     13.49290      2.36376         0.443370      0.179821     -1.552676
Ti       9.59282     13.66313     15.42545         0.106753     -0.175479      1.208471
Ti       9.55493      2.05972      6.72300        -0.365640     -0.780890     -0.326209
Ti       9.59601     13.53689      6.68751        -0.204735      0.448153     -0.201920
Ti       9.61298      2.12286     10.99218        -0.502411      0.289482     -0.247584
Ti       9.53964     13.54831     11.01613         0.406356      1.345139     -0.567667
Ti       9.57220      5.88531      2.29049        -0.352048     -0.844041      1.175090
Ti       9.58434      5.87760     15.51394        -0.766875     -0.504135     -2.363298
Ti       9.53583      5.82735      6.76961         0.950525      0.676717     -0.405922
Ti       9.63020      5.94930     11.09341        -1.602680     -0.869629     -0.202580
Ti       9.62743      9.63121      2.28023        -0.515472      0.804053      0.193951
Ti       9.58203      9.65397     15.45312         0.203629      0.748683     -1.573625
Ti       9.53551      9.64117      6.86769         0.747276      0.671905      0.177803
Ti       9.59325      9.74787     11.03131         0.129410     -0.641704     -0.259319
O       1.89668      1.91368      0.81096         0.311704      0.537092      0.158802
O       1.97381      2.06368     13.66703        -0.392295     -0.576939     -0.520511
O       1.80210     13.51801      0.56323         0.444056     -0.547499     -0.694674
O       1.94664     13.44907     13.62348        -0.464865      0.211442      0.603488
O      13.46638      2.19970      0.72139        -0.077868     -0.382476      0.015977
O      13.33366      2.14517     13.67681         0.172712     -0.303637     -0.805455
O      13.33574     13.66854      0.53727         0.107427     -0.359782      1.045782
O      13.45682     13.67428     13.59189        -0.058092      0.101216     -0.106938
O       1.94866      1.89685      4.83057        -0.336819     -0.080195     -0.086056
O       1.95383     13.36591      4.88041        -0.709601     -0.285351      0.048029
O      13.43928      1.95560      4.96618        -0.022850      0.277746     -0.777510
O      13.40563     13.55842      4.98387         0.471735      0.025463     -0.212371
O       1.93572      1.80594      9.31162        -0.203171     -0.146272     -1.112027
O       1.83393     13.28664      9.37488         0.309935      0.343944      1.172390
O      13.51915      2.07114      9.19872        -0.554366      0.047861      0.163640
O      13.43547     13.51927      9.22862         0.001734      0.038702      1.323053
O       2.06259      5.81234      0.57952        -0.746087      0.256280      1.236639
O       1.90828      5.76892     13.69428        -0.151758      0.027303     -0.625832
O      13.43764      5.87021      0.64479        -0.237710      0.387398      0.157317
O      13.56647      5.98084     13.73066        -0.162311     -0.012633     -0.700664
O       1.75194      5.86913      5.03841         0.085710      0.024078     -2.012703
O      13.50452      5.94875      4.97633         0.095336     -0.157612     -0.731879
O       1.91266      5.77149      9.37684         0.012819      0.184397     -1.241520
O      13.41182      5.98842      9.29938        -0.052038     -0.149154     -0.487549
O       1.87910      9.69830      0.59065        -0.113770     -0.332767     -1.198670
O       1.95212      9.66359     13.61940        -0.174863     -0.412209      0.651443
O      13.30055      9.77761      0.58910         0.793480      0.105902      0.173774
O      13.47621      9.69114     13.56330         0.061640      0.177682     -0.618407
O       1.83879      9.60442      5.00166         0.041828     -0.112334      1.646470
O      13.40489      9.83000      4.89970        -0.002638      0.081205      1.552844
O       2.09897      9.59552      9.30361        -0.431181      0.198123     -0.849100
O      13.44650      9.72563      9.30960         0.059147      0.153478     -0.799989
O       5.56392      1.91226      0.71913         0.354248      0.164358     -0.663712
O       5.67906      2.08564     13.63971        -0.197962     -0.312477     -0.053410
O       5.77024     13.49561      0.53077        -0.124909      0.332222     -1.458949
O       5.80192     13.50849     13.76922        -0.000338      0.226524     -0.988465
O       5.76217      1.95766      4.83018         0.093080      0.095792     -0.073600
O       5.71103     13.53773      4.93563         0.482624     -0.281491     -0.703968
O       5.57002      2.06919      9.19942         0.462782     -0.162214      0.631812
O       5.57410     13.48899      9.44474         0.392882      0.066319     -0.927541
O       5.57169      5.83412      0.58149         0.045637      0.226570     -1.457462
O       5.85938      5.76556     13.55835        -0.516812      0.208407      0.765452
O       5.83063      5.89826      4.89032        -0.123739     -0.087642     -0.693939
O       5.74063      5.52289      9.27733        -0.410128      0.746193      0.603110
O       5.68157      9.60598      0.58190        -0.105317     -0.114824     -0.730164
O       5.72796      9.66271     13.58837        -0.024281     -0.172570      1.411982
O       5.73458      9.58754      4.95023         0.341101      0.066889      0.189413
O       5.66585      9.60762      9.31625         0.007284      0.791936      0.183206
O       9.67273      2.13742      0.56400        -0.370712     -0.034343      0.065644
O       9.71482      2.06716     13.58322        -0.167521     -0.068922      0.512381
O       9.81892     13.53869      0.58323        -0.818805      0.066241      0.497027
O       9.54246     13.70352     13.72615         0.139589     -0.355373     -1.855365
O       9.47147      2.08846      4.99069         0.176708     -0.308615     -0.634786
O       9.51206     13.62918      4.90666         0.278473     -0.447674     -0.313529
O       9.63328      2.11558      9.22515        -0.189566     -0.101182     -0.203222
O       9.59838     13.69702      9.27341        -0.309878     -0.656031      0.348536
O       9.65494      5.76650      0.57686        -0.079288      0.261857     -0.782874
O       9.58199      5.81795     13.68561        -0.045422      0.530974      0.797432
O       9.57437      5.83930      5.03699        -0.350649      0.322589     -0.969406
O       9.52248      5.86977      9.33250         0.652012      0.143272     -0.644247
O       9.62251      9.67246      0.54837         0.205117     -0.127600     -0.652669
O       9.60821      9.57419     13.67736         0.011780      0.274179      0.186813
O       9.55873      9.66128      5.13573         0.235763     -0.071262     -1.421047
O       9.44076      9.73332      9.26776         0.925561      0.010718     -0.227636
O       3.87416      1.98448      2.93412        -0.247470      0.149155     -0.420450
O       3.83086      1.93293     15.91146        -0.392492     -0.076824     -0.362321
O       3.91934     13.45370      2.69356        -1.205557      0.297490     -0.044547
O       3.82049     13.41774     15.82386        -0.174915      0.369607      0.211532
O      15.32914      2.09594      2.88973         0.434703      0.210136      0.130064
O       0.02547      1.88816     15.81862        -0.438701      0.079726     -0.172125
O       0.00282     13.29521      2.70457        -0.317502      0.312691      0.324473
O      15.29583     13.70244     15.88513         1.050315     -0.195774     -0.421975
O       3.79484      1.89062      6.99279        -0.178764      0.147087      0.011724
O       3.74857     13.53522      6.97307         1.535208     -0.915821      0.693808
O      15.31998      1.87912      7.11660         0.559550      1.433980     -0.696192
O      15.35016     13.58985      7.22812         0.083892     -0.241059     -0.721749
O       3.75493      1.87322     11.44153         0.736477     -0.068981      0.258743
O       3.82161     13.52094     11.54971        -0.228010     -0.110497     -0.193478
O      15.31478      2.08709     11.46968         0.134935     -0.025584      0.229817
O      15.33342     13.60751     11.56923         0.046622      0.083801     -0.307446
O       3.79832      5.84344      2.79056        -0.248534      0.037902      0.385711
O       3.83649      5.75356     15.79056        -0.436301      0.571436     -0.271604
O      15.33730      5.98401      2.74802         0.049429      0.158980     -0.021082
O       0.02276      5.74421     15.98148        -0.409780      0.335266     -0.306569
O       3.83417      5.64691      7.03371        -0.423022      0.523203     -0.155348
O       0.00498      5.61464      7.33188         0.115822      0.953049     -0.668307
O       3.79731      5.78829     11.44286        -0.391731      0.276512      0.430778
O      15.31810      6.02634     11.46618         0.814762     -0.134437      0.054367
O       3.76475      9.55890      2.79199         0.361630      0.196464     -0.193433
O       3.76419      9.61601     15.74729         0.438768      0.411810      0.287010
O      15.34336      9.87179      2.76569         0.259879      0.063656     -0.223871
O       0.00203      9.81007     15.69807        -0.914886     -1.171812      0.463920
O       3.86868      9.62527      7.10449        -0.128654      0.184823      0.081226
O      15.32928      9.84573      7.22005         0.146999     -0.452189     -0.227571
O       3.85609      9.67942     11.57491         0.089661     -0.280530     -0.221018
O       0.10318      9.70461     11.48395        -1.738368     -0.807802     -0.295462
O       7.72485      1.91249      2.72817        -0.655161      1.151890     -0.068273
O       7.61166      2.09746     15.74282        -0.179470     -0.655305      0.167345
O       7.65027     13.39983      2.68613         1.261660      0.418634      0.146350
O       7.72023     13.54722     15.87807        -0.414960      0.360619      0.185782
O       7.57439      2.02261      7.02291         0.953518     -0.182138      0.468188
O       7.59912     13.53163      7.23053         0.265134     -0.255102     -0.569166
O       7.62366      2.21610     11.33860         0.175425     -0.717246      0.073909
O       7.70657     13.50581     11.58706        -0.963601      0.480586     -0.653653
O       7.63062      5.90686      2.65682         0.879209     -0.534363      0.116836
O       7.61285      5.89919     15.85908         0.145834      0.001364      0.023397
O       7.65992      5.93799      7.08323        -0.269716     -0.519564      0.076444
O       7.62203      5.91749     11.34254         0.293430     -0.363061      0.642463
O       7.59474      9.64839      2.69905         1.600624      0.085549      0.274294
O       7.70257      9.63553     15.70547        -0.924178      0.028545      0.439634
O       7.68622      9.62194      7.22284        -1.068589      0.178873     -0.342818
O       7.75541      9.55014     11.32006        -1.206504      0.789518      0.856688
O      11.49215      2.20097      2.81860         0.776777     -1.322642     -0.026245
O      11.51955      2.19397     15.89485        -0.034954     -0.379517     -0.427592
O      11.51509     13.69071      2.75533        -0.672340     -0.992654      0.120157
O      11.53119     13.78071     15.77960        -0.347782     -0.552860     -0.142300
O      11.41517      1.99796      7.04357         1.128060      0.416927      0.265248
O      11.48714     13.59153      7.07800         0.375539     -0.021531      0.126645
O      11.51686      2.02177     11.29387        -0.043068     -0.140458      0.288767
O      11.47615     13.61001     11.45343         0.083555     -0.121777     -0.008621
O      11.46861      5.83263      2.85713         0.197296      0.700647     -0.352728
O      11.43131      5.92452     15.83598         1.718778      0.051062     -0.003631
O      11.53748      5.87564      6.97112        -0.484528     -0.010931      1.005448
O      11.52859      5.89166     11.48207         1.088236      0.590348     -0.326404
O      11.48810      9.69214      2.81489        -0.147502      0.025221      0.094209
O      11.58763      9.66748     15.73640        -0.976701      0.420000      0.005921
O      11.50758      9.77959      7.22640         0.672703     -0.381142     -0.251839
O      11.54852      9.78951     11.43116        -0.131690      0.145335     -0.029356
O       1.95920      3.95456      2.84851        -0.305418     -0.567389      0.084232
O       1.90733      3.83401     15.90092         0.091277     -0.318491     -0.330426
O       2.00758     15.33269      2.64594        -0.449983      0.020232      1.019608
O       1.93863     15.33791     15.80350        -0.043153      0.786420     -0.083938
O      13.42010      4.05264      2.77323         0.334969     -0.338813      0.533471
O      13.50734      4.09883     15.81550        -0.337206     -0.804656      0.034911
O      13.48233     15.43997      2.74072        -0.035344      1.294838      0.414092
O      13.46306     15.55868     15.90643        -0.194098      1.156622     -0.650217
O       1.87282      3.75407      7.02917        -0.299166     -0.438455     -0.224970
O       1.90397     15.22465      7.02352        -0.399827      1.199516      0.126948
O      13.40086      3.99603      7.09392         0.277946     -0.971970      0.007614
O      13.39315     15.52604      7.15160         0.007652     -0.669654     -0.113573
O       1.95932      3.77434     11.28432        -0.556705      0.869582      0.779947
O       1.85826     15.35117     11.54145         0.088987     -0.741904      0.054169
O      13.45574      3.92885     11.47526         0.025290      1.319931     -0.263932
O      13.43184     15.50141     11.36369         0.186296     -0.357937      0.341138
O       1.94492      7.73528      2.93686        -1.053497     -0.307688     -1.055239
O       1.74656      7.74103     15.83674         0.646541     -0.250618     -0.257912
O      13.40930      7.93662      2.77740         0.160336     -0.920971      0.046558
O      13.42570      7.90399     15.83066         0.775285     -0.346634      0.077833
O       1.98346      7.67594      7.28607        -0.562271     -0.168233     -0.451968
O      13.42308      7.80573      7.04639         0.137198      1.338149      0.395750
O       1.97215      7.77554     11.48361        -0.440597     -1.695479      0.188230
O      13.39585      7.91243     11.48707         0.889074     -0.786340     -0.503822
O       2.03017     11.54354      2.75345        -0.944300     -0.615250     -0.653852
O       1.93252     11.56741     15.80884        -0.262799      0.141343      0.155839
O      13.35660     11.71597      2.66858         0.013719     -0.540790      0.682792
O      13.45691     11.73932     15.73740        -0.576075     -0.002879     -0.128617
O       1.92200     11.49642      7.17894        -0.013478     -0.556697      0.108412
O      13.40472     11.71735      7.15693         0.221375     -1.190750     -0.266281
O       1.91236     11.44479     11.53906         0.216131      2.247757     -0.026645
O      13.39735     11.69782     11.52774         0.099368      0.112566     -0.192864
O       5.70744      3.92756      2.73527         0.219433     -0.061898      0.117620
O       5.78533      3.95869     15.92345        -0.617829     -1.168526     -0.523637
O       5.87261     15.40206      2.71120        -0.671640      0.189209      0.192396
O       5.73905     15.39522     15.90664        -0.023437      1.193424     -0.353054
O       5.74832      3.91238      6.99734         0.045128     -0.404236     -0.067660
O       5.74691      0.09561      7.05810        -0.244595     -0.614658     -0.054269
O       5.63533      3.87881     11.51427        -0.198754      0.136151     -0.130117
O       5.88081      0.16148     11.52391        -0.976859     -0.892429     -0.472291
O       5.77368      7.73622      2.74387        -0.412690     -0.216302      0.064218
O       5.65772      7.73895     15.78247         0.159147      0.310224     -0.161014
O       5.66641      7.67374      7.23087         0.322971      0.596313     -0.586065
O       5.73423      7.77226     11.26379        -0.494172     -1.070309      0.685942
O       5.75686     11.60249      2.63061        -0.105200     -0.943203      0.649609
O       5.88002     11.60553     15.85842        -1.036502     -0.970960     -0.342718
O       5.82740     11.60208      7.04734        -0.372098     -1.127840      0.288065
O       5.71314     11.57859     11.55313         0.527202      0.691187     -0.266575
O       9.62737      3.89910      2.83949        -0.758763      1.426093     -0.240926
O       9.48330      3.97911     15.72569         0.235383     -0.210059      0.647209
O       9.55182     15.47693      2.58329         0.320932     -0.641052      0.653076
O       9.48271      0.25083     15.76733         0.560454     -0.798963      0.353657
O       9.57452      3.96590      7.00412        -0.091020     -0.222275      0.796279
O       9.53906     15.41270      7.11557        -0.355120      1.104437      0.084921
O       9.68062      3.99166     11.38566         0.007697      0.074962      0.397994
O       9.51604     15.49260     11.43594         0.058538      0.341759      0.102691
O       9.55951      7.76887      2.78931         0.500812      0.032706     -0.243952
O       9.56070      7.79266     15.94993         0.086203      0.029683     -0.287942
O       9.64909      7.78124      7.27497        -0.087432     -0.172835     -0.263852
O       9.68018      7.83093     11.47636         0.163722     -0.038920     -0.063320
O       9.68149     11.54772      2.63530        -0.362092      0.418297      0.655222
O       9.56932     11.67659     15.74944         0.543875     -0.417778     -0.086024
O       9.64337     11.70307      7.08535        -0.670820     -1.322312      0.524682
O       9.57578     11.64655     11.39582         0.055991      0.049497      0.372795
