  # total energy = -7882.02216088 
CRSYTAL
PRIMVEC
    15.3600000000000000    0.0000000000000000    0.0000000000000000
     0.0000000000000000   15.3600000000000000    0.0000000000000000
     0.2400000000000000    0.0000000000000000    17.440000000000000
PRESSURE
1.95719 1.82923 -1.4589 -0.187265 -0.93801 0.004986
PRIMCOORD
320 1
Pb       3.86237      3.84116      4.27254        -0.210034     -0.027233      0.695212
Pb       3.99830      3.81669     17.36541        -0.111894      0.132964      0.360838
Pb       3.79181     15.31700      4.21715        -0.162565      0.158999      0.803355
Pb       4.24597     15.29242     17.35918        -0.758773      0.047180      0.310482
Pb       0.06095      3.88046      4.32489        -0.052657     -0.642060      0.101060
Pb      15.41685      3.82632     17.38468         0.231162     -0.357349     -0.162563
Pb      15.38418     15.13294      4.24944         0.053791      0.736597      0.385394
Pb       0.33649      0.12447     17.30713        -0.462795     -0.232688      0.273979
Pb       3.83911      3.77452      8.64416         0.224519      0.560995      0.592753
Pb       3.91531      0.04700      8.65862         0.172281     -0.873064      0.519576
Pb      15.36601      3.85429      8.69786         0.732992      0.068570      0.515877
Pb       0.22647      0.00302      8.64551        -0.191988     -0.348493      0.812606
Pb       3.97644      3.70349     13.03206         0.489844      0.743016      0.576786
Pb       3.96870     15.29240     12.90802         0.173254     -0.257269      0.982984
Pb      15.48609      3.63953     13.13645        -0.115382     -0.098940      0.643892
Pb      15.47851     15.18809     12.95362         0.201935      0.460222      0.501977
Pb       3.89529      7.65863      4.26673         0.171114     -0.423467      0.437903
Pb       4.02574      7.72254      0.03312        -0.348899     -0.305226     -0.045787
Pb      15.35659      7.75354      4.31079        -0.198555     -0.475660      0.084030
Pb       0.27278      7.58511     17.37656        -0.695335      0.150372      0.712879
Pb       3.91114      7.80745      8.69902         0.033617     -0.200024      0.474012
Pb       0.23320      7.70990      8.74845        -0.415282     -0.182740     -0.095396
Pb       3.98339      7.70016     13.04083         0.282599     -0.309410      0.519972
Pb      15.54054      7.73818     13.13051        -0.285021     -0.296637      0.266938
Pb       3.80046     11.56125      4.23588         0.389613     -0.216594      0.615682
Pb       4.12020     11.42009     17.41182        -0.154454      0.626203      0.406204
Pb      15.32442     11.38249      4.17666         0.240107      0.676364      0.561454
Pb      15.57599     11.44423     17.37596        -0.451863     -0.050592      0.533318
Pb       3.87184     11.51432      8.60650         0.305305     -0.125198      0.574600
Pb       0.22602     11.53564      8.64072        -0.207203      0.264031      0.714391
Pb       3.94718     11.44954     13.19453        -0.072196      0.020149     -0.366433
Pb      15.38851     11.41872     13.04252         0.413665      0.468666      0.725826
Pb       7.68491      3.75947      4.43299         0.229626      0.209944      0.134569
Pb       7.82391      3.86180     17.43148         0.380391     -0.081060      0.444719
Pb       7.62484     15.30030      4.41228         0.243704     -0.129985      0.184512
Pb       7.89805     15.35569     17.39204         0.311540     -0.268375      0.165607
Pb       7.79267      3.77352      8.64176        -0.208102     -0.123425      0.306819
Pb       7.81664     15.29021      8.56995        -0.541997     -0.074078      0.564141
Pb       7.76861      3.93394     12.82899         0.190316     -0.797636      1.171750
Pb       7.71211      0.07898     12.92463         0.386813      0.522630      0.502118
Pb       7.78104      7.58667      4.28109         0.121332      0.261632      0.515044
Pb       7.71465      7.71569      0.02140         0.213298     -0.241089     -0.109977
Pb       7.80870      7.64947      8.70797         0.029327      0.884305      0.118536
Pb       7.85013      7.73773     13.05999        -0.067771      0.125593      0.473789
Pb       7.90095     11.44379      4.32501        -0.487682     -0.062069     -0.315335
Pb       7.56024     11.64938      0.03415         0.815733     -0.333619      0.281928
Pb       7.69123     11.47735      8.59818         0.011893     -0.193848      0.144037
Pb       7.79813     11.66341     13.00161         0.141236     -0.919809      1.071073
Pb      11.60356      3.89529      4.44950         0.074328     -0.779938     -0.047608
Pb      11.59918      3.94007     17.37601         0.781498     -0.795745     -0.128914
Pb      11.57906      0.04428      4.48719         0.025626     -0.010368     -0.826983
Pb      11.81898      0.20505     17.36147        -0.562951     -1.015963      1.151846
Pb      11.76746      3.86636      8.69319        -0.709788      0.141175      0.921645
Pb      11.59053      0.01144      8.62723         0.033618     -0.351485      1.260152
Pb      11.60394      3.84808     12.99952        -0.141063     -0.175838      0.583102
Pb      11.53393     15.13147     13.02795         0.272014      0.910698      0.396204
Pb      11.55786      7.55543      4.43697         0.248344      1.008702      0.012838
Pb      11.65621      7.60860     17.31405         0.200656      0.157557      0.189290
Pb      11.64587      7.63532      8.62724        -0.427952      0.537296      0.561710
Pb      11.82616      7.58530     13.07614        -0.650530      0.122598     -0.003147
Pb      11.67708     11.42934      4.16312        -0.415127     -0.001576      0.613884
Pb      11.61373     11.62518     17.41644         0.044011     -0.336275      0.102802
Pb      11.60900     11.61549      8.65875        -0.521425     -0.796397      0.409019
Pb      11.56160     11.49238     13.02901         0.388789     -0.134400      0.593328
Ti       1.94477      1.93919      2.33388        -0.473177     -0.856586     -1.040053
Ti       2.22475      1.86705     15.44172        -1.670816      0.430071     -0.950216
Ti       1.87070     13.39545      2.20119         0.713200     -0.274071      1.119658
Ti       2.13969     13.32197     15.40706         0.042907      0.869672      0.343541
Ti      13.45541      1.87200      2.38683         0.241902      0.169452     -1.578106
Ti      13.58065      1.81017     15.38093         0.781667      1.637805     -0.739992
Ti      13.40538     13.43628      2.19566         0.328618     -0.163327     -0.746880
Ti      13.66858     13.35875     15.45408        -0.904789     -0.252285     -0.281340
Ti       1.99620      1.95094      6.73899        -0.149006     -0.605242     -2.775559
Ti       2.00759     13.40251      6.63899         0.557720      0.431829      0.630639
Ti      13.55187      1.91167      6.75620         0.688183     -0.064189     -1.346470
Ti      13.52992     13.43744      6.75359         1.278496      0.012192     -1.567507
Ti       2.10654      1.90032     11.17094        -0.945653     -0.811746     -0.343933
Ti       2.06755     13.32243     11.07129         0.240032      0.349784     -1.122422
Ti      13.58572      1.84609     11.10719        -0.325512     -0.047307     -0.145788
Ti      13.56022     13.42856     11.05626        -0.090661      0.340727     -0.111639
Ti       1.87379      5.75192      2.27995         0.624305     -0.796891     -0.300564
Ti       2.14661      5.76517     15.40117         0.387181     -1.300844      0.695815
Ti      13.48238      5.70805      2.36045         0.759390      0.406734     -1.587419
Ti      13.67718      5.71533     15.38822        -1.712185     -0.680693     -1.324984
Ti       2.03327      5.79093      6.66142        -0.302092     -0.504778      0.005066
Ti      13.57504      5.78028      6.76094         0.323745      1.043171     -1.137931
Ti       1.97746      5.71767     11.14722         1.319475     -0.009475      0.507319
Ti      13.69081      5.67986     11.21023        -1.590428      0.085271     -0.359618
Ti       2.01924      9.50929      2.34619        -0.882322      0.644537     -0.689497
Ti       2.12912      9.51044     15.51175        -0.301687      0.988972     -1.002286
Ti      13.49946      9.54651      2.26888        -0.260373     -0.286140      0.310929
Ti      13.59810      9.49578     15.48305        -0.390294      0.868470      1.611010
Ti       1.95683      9.56716      6.57797         0.449563      0.177740     -0.397792
Ti      13.57496      9.66309      6.77384        -0.887217     -0.803428     -0.752816
Ti       2.02588      9.56232     11.13278         0.821484      0.683616     -0.830115
Ti      13.58055      9.63583     11.00639        -0.786732     -0.356161     -0.173108
Ti       5.80939      1.87901      2.44689         0.218201     -0.153507     -1.637881
Ti       6.05602      1.98748     15.48399        -1.043299     -0.705879     -2.119020
Ti       5.74586     13.38972      2.41259         0.898274     -0.609646     -0.548949
Ti       5.97849     13.43498     15.33469         0.028049      0.038783     -0.024725
Ti       5.79808      1.93816      6.76526         0.509914     -0.828518     -0.479430
Ti       5.81346     13.39196      6.64592        -0.190962      0.300014      0.780790
Ti       5.86346      1.86861     10.94507         0.814247      0.830107     -0.872075
Ti       5.93232     13.40571     11.01290        -1.574019     -0.178021     -0.577750
Ti       5.75620      5.67325      2.35410         0.439881     -0.108617     -0.958946
Ti       5.99869      5.75242     15.35292        -0.098432     -0.566968      0.705183
Ti       5.77485      5.82881      6.77772         0.424730     -0.673870     -1.780359
Ti       5.88761      5.83273     10.98130        -1.078284     -0.624846      0.719716
Ti       5.81359      9.48657      2.41084         1.376054      1.112065     -1.387173
Ti       6.04732      9.55821     15.52198        -0.188892      0.492669     -1.414471
Ti       5.79263      9.54189      6.65166         0.647245      0.601938     -0.183066
Ti       5.88604      9.64674     11.07900        -0.430823     -0.626630     -1.969181
Ti       9.67250      1.86659      2.40656         0.043551      0.254909     -0.194219
Ti       9.77650      1.88535     15.33623         0.139594     -0.126380     -1.628015
Ti       9.66810     13.50790      2.37615        -0.921623     -1.371114     -1.650645
Ti       9.82048     13.45132     15.43234        -0.215777     -0.759360      0.149372
Ti       9.73587      1.90488      6.79023        -1.093465     -0.460323     -1.310758
Ti       9.73503     13.40098      6.58404        -1.397711     -0.593331     -0.011483
Ti       9.77833      1.91273     10.98678        -0.476539     -0.270519     -0.481770
Ti       9.67189     13.39763     11.04602         0.745975      0.848199     -0.311114
Ti       9.71753      5.65887      2.45274        -1.117468      0.694327     -0.491676
Ti       9.74108      5.66802     15.38692         0.207608      0.407156     -1.288387
Ti       9.63548      5.79087      6.76857         0.228867      0.665529     -0.222802
Ti       9.66758      5.84212     11.06206         1.884066     -0.566930     -1.170254
Ti       9.73406      9.55187      2.23605        -0.044925     -0.220296     -0.528949
Ti       9.79530      9.55320     15.39326         0.296270      0.668737      0.021512
Ti       9.69979      9.60589      6.69368        -0.543891      0.296797      0.073943
Ti       9.71520      9.60985     11.11082         0.536066     -0.206566     -0.808213
O       2.05854      1.84656      0.50762        -0.581488      0.063684      1.498512
O       2.15720      1.99502     13.62481         0.112599     -0.538888      0.322866
O       2.12480     13.34791      0.49760        -0.811309      0.162722     -0.346427
O       2.19263     13.31913     13.65017        -0.417258      0.216489      0.574518
O      13.34493      1.96766      0.56240         0.346615     -0.348566      1.249108
O      13.58706      1.76641     13.61688         0.034023      0.061155     -0.098348
O      13.44597     13.52981      0.43329        -0.072708     -0.413135      0.836739
O      13.53243     13.25024     13.62593         0.465741      0.769661      1.249201
O       2.05324      1.88184      4.87085        -0.178808      0.075039      1.886094
O       2.10236     13.50570      4.89056        -0.275780     -0.289332     -0.169778
O      13.59293      1.97623      4.93410        -0.585231     -0.359663      1.428938
O      13.57389     13.36183      4.96559        -0.466585      0.333424      1.037432
O       2.09349      1.91638      9.42699         0.054190      0.131331     -0.715230
O       1.96850     13.31132      9.24739         0.160141     -0.164554      0.972219
O      13.59527      1.92000      9.32382        -0.096624      0.275707      0.055191
O      13.58472     13.55344      9.31845        -0.186567     -0.520923     -0.998053
O       1.79796      5.56751      0.54352         0.179090      0.562666     -0.424303
O       2.11404      5.84918     13.67364        -0.196941     -0.257705      0.336891
O      13.54590      5.69966      0.52016        -0.469188      0.031663      1.609184
O      13.61435      5.75129     13.55560        -0.228625      0.092937      1.147645
O       2.00849      5.75081      4.89948        -0.015963      0.111363      0.392832
O      13.57202      5.82526      4.96078         0.004866     -0.444082      0.735140
O       2.02301      5.75802      9.39772        -0.382767     -0.010019     -0.058786
O      13.68599      5.47805      9.38583        -0.430104      0.691774      0.725277
O       2.05873      9.55503      0.57078        -0.151744     -0.059274      0.400277
O       1.97645      9.61628     13.67001         0.611643     -0.393229      1.788166
O      13.51429      9.47977      0.56493        -0.212960     -0.051999     -0.963716
O      13.67176      9.62207     13.79120         0.200602     -0.229529     -2.221200
O       1.92680      9.60194      4.76249         0.254515     -0.447027      1.225967
O      13.49601      9.60472      4.98147         0.321479      0.130239      0.637701
O       2.07997      9.61913      9.29409        -0.593695     -0.277540      1.557384
O      13.60669      9.65554      9.24149        -0.214572     -0.115022      0.496143
O       5.83811      1.82473      0.60807        -0.078160      0.258927      1.288409
O       5.93739      1.88766     13.67434         0.196700      0.200978      0.809556
O       5.81301     13.37217      0.59868        -0.076792      0.193051      0.848997
O       5.98407     13.49488     13.54251         0.084459     -0.231094      0.796485
O       5.73665      1.84341      4.98935         0.122844      0.364664     -0.150373
O       5.84639     13.38821      4.90440        -0.460357      0.212154     -0.355640
O       5.84392      1.94575      9.15664        -0.123184      0.048215      0.415195
O       6.01775     13.29634      9.25021        -0.509764      0.067529      0.689258
O       5.80076      5.53331      0.55467        -0.009601      0.632111      1.450419
O       6.02164      5.74457     13.62212         0.049600      0.008692     -0.374422
O       5.77319      5.81112      4.94110        -0.173045      0.014603      0.915145
O       5.84412      5.86938      9.22096         0.077419     -0.101832      0.317125
O       5.88781      9.44412      0.46597        -0.588825      0.248302      2.122629
O       5.87462      9.61510     13.74686         0.406178     -0.178456      0.383724
O       5.71480      9.44226      4.88523         0.130262      0.049398     -0.185787
O       5.80759      9.68642      9.19277         0.013147     -0.463529      2.139723
O       9.69590      1.84956      0.62605        -0.401147      0.248745      0.997311
O       9.72185      1.80796     13.50026         0.052473      0.340340      1.428923
O       9.53710     13.39737      0.50450         0.110688      0.332560      1.864556
O       9.72209     13.37250     13.61907         0.164932      0.242283      0.751919
O       9.74605      1.86026      4.97504         0.422708     -0.295084      1.202863
O       9.65778     13.45139      4.80018         0.307700     -0.173897      0.778662
O       9.61616      1.79408      9.15135         0.364297      0.383351      1.155338
O       9.67456     13.43660      9.31363         0.103105     -0.264225     -0.775466
O       9.70673      5.61663      0.66887        -0.163639      0.273420      0.541469
O       9.61911      5.64937     13.59612         0.225056      0.173182      0.905690
O       9.69575      6.03666      4.96843        -0.013865     -1.392300      1.327928
O       9.67687      5.77159      9.18457        -0.128892      0.257766      1.398481
O       9.76399      9.45343      0.40036        -0.463357     -0.054898      1.627385
O       9.76686      9.67527     13.61687        -0.227050     -0.200755      0.159837
O       9.80049      9.60151      4.95674        -0.179719     -0.084037     -0.465945
O       9.76702      9.61208      9.33077        -0.095392      0.016471      0.620945
O       3.89606      2.01619      2.76329         0.217840     -0.777165     -0.303548
O       4.02310      1.90126     15.80100         1.523278      0.101041      0.186077
O       3.85860     13.36392      2.64353        -0.093725      0.062846      0.327025
O       4.06034     13.41679     15.73278         0.843142     -0.282826      0.072610
O      15.37475      1.74950      2.71914         0.457994      0.479736     -0.217002
O      15.54310      1.92669     15.69493         0.218646     -0.540690      0.583092
O      15.33540     13.35230      2.73088         0.531700     -0.015561     -0.696329
O      15.54775     13.31091     15.90846         0.458307      0.613397     -0.809788
O       3.84740      1.90973      7.20369         0.458428      0.535249     -0.281769
O       3.88284     13.41984      7.19880         0.430370     -0.507329     -0.644448
O       0.10670      1.98512      7.22144        -0.223766     -0.514250     -0.558246
O       0.17400     13.49018      7.02549        -1.077024      0.028297      0.327772
O       4.02922      1.89139     11.48634        -0.287673      0.403489     -0.115125
O       3.98323     13.41847     11.42826         0.940765     -0.686771     -0.092050
O      15.50533      1.73378     11.41865         0.222531      0.602087      0.509758
O       0.20218     13.39839     11.41249        -1.061029      0.165246      0.331008
O       3.80496      5.82103      2.57511         1.135068     -0.606201      0.521183
O       4.12075      5.54403     15.77404        -0.895560      0.823643     -0.206945
O       0.07318      5.66062      2.73215        -1.288805      0.387550      0.400571
O      15.45650      5.79494     15.74479         2.733235     -0.219659      0.126003
O       3.92088      5.70385      7.12812        -0.680231      0.153109     -0.007475
O       0.10551      5.79072      7.14857         0.151090     -0.149423     -0.031663
O       3.88114      5.74847     11.62528         1.008056     -0.001601     -0.917275
O      15.45533      5.72286     11.73658         1.489986     -0.297489     -0.944951
O       3.94394      9.56403      2.73243        -0.308354     -0.421373     -0.391991
O       4.11429      9.64449     15.97315        -0.456929     -0.766773     -0.711605
O       0.04922      9.56937      2.70875         0.179535     -0.073794     -0.111346
O      15.55179      9.55122     15.92087         1.268951     -0.031177     -0.254437
O       3.78832      9.52080      7.13899         0.574197      0.487855     -0.787662
O       0.09980      9.53628      7.10116         0.281750     -0.251301     -0.041159
O       3.92020      9.65743     11.49378         0.485846     -0.351466      0.013341
O      15.46839      9.52724     11.49813         0.087632      0.386288     -0.258084
O       7.79371      1.92324      2.91098        -0.895745     -0.225297     -0.387923
O       7.88334      1.92056     15.76107         1.000765     -0.496456      0.400107
O       7.67277     13.34757      2.84503         0.677485      0.513460     -0.345606
O       7.87467     13.36482     15.94263         0.367429      0.844473     -0.914209
O       7.76179      1.82089      7.04401        -0.104168      0.102384      0.065209
O       7.72108     13.46067      7.03377         0.367582     -0.257437     -0.344749
O       7.71584      1.97499     11.32942         1.047814     -0.539033      0.037982
O       7.76495     13.44781     11.45959         0.485071     -0.174685     -0.094490
O       7.74948      5.71387      2.87469         0.133907     -0.154944     -0.605132
O       7.91471      5.68530     15.92531        -0.271092      0.258831     -0.184699
O       7.71345      5.95060      7.15220         0.834839     -1.216926     -0.454325
O       7.84041      5.90857     11.49317        -0.994730     -0.346672     -0.839175
O       7.87696      9.49193      2.72738        -1.526167     -0.193354     -0.174929
O       7.94960      9.43880     15.86738        -0.839504      0.318186     -0.193522
O       7.72199      9.58956      7.04219        -0.191994     -0.282671     -0.046258
O       7.83531      9.56939     11.43325        -0.711914      0.138972     -0.001885
O      11.56891      1.89524      2.82406         0.149840     -0.141527      0.405220
O      11.68869      1.89378     15.83291        -0.435030      0.388950     -0.548368
O      11.53779     13.34194      2.69319        -0.094002      0.199455     -0.091559
O      11.72523     13.42439     15.93161        -0.308808      0.152257     -0.923583
O      11.63131      1.88737      7.26509         0.481566      0.156893     -0.961592
O      11.60908     13.36197      7.07117         0.361999      0.320940     -0.216471
O      11.62528      1.91964     11.31540         0.090547     -0.292829      0.012534
O      11.60284     13.43138     11.46827         0.749067     -0.393531     -0.388492
O      11.65246      5.70440      2.89421        -0.417044     -0.350643     -0.356057
O      11.70393      5.71436     15.72531        -0.238922      0.042246      0.243906
O      11.59745      5.75547      7.12434        -0.167141     -0.061781     -0.143057
O      11.56732      5.72931     11.59963         0.984639      0.351143     -0.646799
O      11.62430      9.57977      2.70612        -0.426349     -0.181736     -0.029109
O      11.69896      9.49858     15.71298         0.210004     -0.143679      0.333432
O      11.54335      9.62394      7.12249         1.758444      0.321437      0.352809
O      11.68313      9.58090     11.52776         0.983553      0.068994     -0.413028
O       1.90852      3.77449      2.71991         0.155730      0.243541      0.114318
O       2.06587      3.79161     15.89981         0.187282      0.698665     -0.630583
O       1.92442     15.25286      2.72189         0.365662      0.458515     -0.437663
O       2.15779     15.30100     15.84359        -0.118177     -0.244842     -0.400794
O      13.56238      3.78038      2.73759        -0.288244      0.459907      0.341435
O      13.59397      3.79426     15.74680         0.313379      0.519860      0.064470
O      13.43566     15.25161      2.69676        -0.179625      0.905102      0.472341
O      13.57726      0.03688     15.90511         0.899565     -1.575819     -0.703480
O       1.95600      3.83278      7.06190         0.419929      0.297280      0.129767
O       2.11223     15.31564      7.19573        -0.728234      0.885524     -0.597626
O      13.50750      3.89611      7.11767         0.192359     -0.966051     -0.073482
O      13.62219      0.03277      7.12514        -0.606881     -0.226873     -0.334027
O       2.05335      3.79003     11.58908        -0.301862      0.195427     -0.487186
O       2.14542     15.23439     11.46156        -0.371084      1.060996      0.130816
O      13.55307      3.74457     11.67492         0.524623      0.053164     -0.820590
O      13.57257     15.29187     11.50779        -0.140629      0.256741      0.060880
O       1.86719      7.61389      2.68510         0.322021      0.821910      0.018078
O       2.24960      7.65210     15.96298        -0.116407     -0.384526     -0.651921
O      13.52462      7.64224      2.77823         0.094581     -0.497702     -0.188265
O      13.69170      7.63786     15.88822        -0.393495     -0.290944     -0.382901
O       2.01759      7.64800      7.15316        -0.199777      0.264697     -0.394658
O      13.53995      7.68220      7.18534        -0.055595      0.074688      0.023461
O       2.11752      7.68182     11.59628        -0.928042      0.133323     -0.711675
O      13.67088      7.58772     11.48619        -0.539689      1.004670     -0.372416
O       1.96149     11.44137      2.76565        -0.017704      0.509411     -0.587052
O       2.14864     11.45207     15.95338         0.223632     -0.232388     -0.561606
O      13.45008     11.49362      2.55877         0.348989     -0.123990      0.436798
O      13.55586     11.49150     15.91597         0.560110     -0.067867     -0.125148
O       1.90431     11.46134      7.07061         0.636827     -0.156946     -0.717150
O      13.70018     11.54777      7.08970        -0.727272     -0.048966      0.307402
O       2.07587     11.52539     11.71828        -0.296214     -1.224619     -1.098826
O      13.66285     11.57952     11.45250        -0.502039     -1.866277     -0.421802
O       5.85983      3.82103      2.89887        -0.219397     -0.222013     -0.455386
O       6.11005      3.82749     15.85161        -0.620157     -0.260871     -0.180066
O       5.82134     15.32476      2.77414        -0.107296      0.309343     -0.116405
O       6.07079     15.34894     15.83471        -0.331036     -0.453116     -0.070758
O       5.86929      3.82806      7.05979         0.067327      0.315770      0.262703
O       5.70113     15.32414      7.05303         0.423116      0.067129      0.113441
O       5.95976      3.91801     11.35928        -0.669984      0.100648     -0.448956
O       5.82793     15.35324     11.29932         0.460633     -0.354238      0.096776
O       5.84095      7.60192      2.66106        -0.243201      0.341023      0.054521
O       5.97098      7.60350     15.79256        -0.059479      0.272715      0.296240
O       5.75394      7.68928      7.05585        -0.198739      0.024484      0.541769
O       5.83223      7.70996     11.57088         0.200442     -0.023125     -0.709239
O       5.82852     11.44086      2.91741        -0.002987     -0.432732     -0.983966
O       6.09708     11.52202     15.79873        -0.509056     -0.052320     -0.072798
O       5.77290     11.43059      7.04172        -0.055926      0.839486     -0.167502
O       5.90979     11.41740     11.55477         0.014028      1.481625     -0.268985
O       9.68714      3.79417      2.98013         0.214548      0.285010     -0.417743
O       9.77074      3.74668     15.87304         0.188884      0.404789     -0.294602
O       9.68223     15.29971      2.84167        -0.071104      0.821929     -0.212044
O       9.85155     15.35023     15.74020        -0.534271     -0.094435      0.062982
O       9.62544      3.74157      7.06118         0.123441      1.811840     -0.129037
O       9.68900     15.23170      7.15483         0.588399      0.617444     -0.672105
O       9.81940      3.85831     11.39206        -1.079258     -0.377868     -0.492806
O       9.77319     15.31048     11.42593        -0.583473      0.787272     -0.118216
O       9.78912      7.60746      2.86058        -0.206108      0.038520     -0.891573
O       9.77817      7.57479     15.75459         0.184322      0.038067      0.146567
O       9.66235      7.74120      7.17828         0.425461     -1.168444     -0.009007
O       9.76507      7.70460     11.56614         0.084217     -0.209990     -0.455658
O       9.59288     11.42130      2.62293         0.608496      0.534916      0.244515
O       9.78725     11.47882     15.82052         0.158015      0.269322     -0.054484
O       9.57726     11.53158      7.07628         0.680952      0.521826     -0.083457
O       9.81736     11.55475     11.44938        -0.759294     -0.820577     -0.007546
