  # total energy = -7882.80017627 
CRSYTAL
PRIMVEC
    15.3600000000000000    0.2300000000000000    0.0000000000000000
     0.0000000000000000   15.3600000000000000    0.0000000000000000
     0.0000000000000000    0.0000000000000000    17.440000000000000
PRESSURE
0.909693 0.744958 1.62293 -0.165639 0.091674 -1.58416
PRIMCOORD
320 1
Pb       3.83410      3.96987      4.22487        -0.411106     -0.357554      0.378811
Pb       3.79557      3.79181      0.09678         0.401317      0.257667     -0.521534
Pb       3.91942     15.37125      4.33253        -0.650393      0.261277     -0.627022
Pb       3.88285     15.38388      0.12404         0.121099     -0.267611     -0.745049
Pb       0.08064      3.93808      4.34731        -0.250902     -0.355688     -0.508111
Pb       0.04698      3.75415      0.07247        -0.291798      0.298009     -0.032689
Pb      15.30156     15.53901      4.41147         0.427479     -0.077142     -0.741732
Pb      15.31055      0.25222     17.42054         0.141196      0.029689      0.074764
Pb       3.78699      3.70424      8.49037         0.200301      0.635778      0.667370
Pb       3.83201      0.05935      8.55840         0.233185     -0.248668      0.040747
Pb      15.32719      3.95959      8.55804         0.135972      0.299111      0.445298
Pb       0.01976     15.19939      8.64363        -0.309520      0.652523     -0.353970
Pb       3.81347      3.73164     13.10362        -0.276593      0.562833     -0.669683
Pb       3.75134      0.07735     13.11211        -0.000435     -0.819727     -0.649041
Pb      15.29727      3.99927     12.95941         0.343989      0.640248      0.026413
Pb      15.30228      0.24578     13.01332         0.334921     -0.302291     -0.238221
Pb       3.81325      7.78485      4.39144        -0.168923     -0.779667     -0.568533
Pb       3.77113      7.66933     17.35754         0.430568      0.208671      0.277034
Pb      15.28358      7.99994      4.43882        -0.087114     -0.519315     -0.192334
Pb      15.27148      7.97372     17.40313         0.419788     -0.273958     -0.131784
Pb       3.86335      7.64286      8.71841        -0.010964      0.070251     -0.208486
Pb       0.01661      7.55556      8.77644         0.155650      0.056477     -0.415723
Pb       3.66920      7.58780     13.06750         0.521824      0.225589     -0.048388
Pb      15.35472      7.86453     13.05803        -0.169091     -0.314440     -0.169219
Pb       3.78611     11.49257      4.23387        -0.093398      0.332896     -0.117944
Pb       3.74446     11.56519     17.35612         0.507232     -0.119240     -0.346151
Pb      15.28161     11.70929      4.36330         0.381724      0.324039     -0.048596
Pb      15.25964     11.80170      0.01088         0.626956      0.030522     -0.975545
Pb       3.94812     11.47638      8.69619         0.178362     -0.076123     -0.054201
Pb       0.08582     11.44224      8.70959        -0.161866      0.297655     -0.211464
Pb       3.73446     11.49818     13.04554        -0.203147      0.472323      0.052053
Pb      15.33006     11.70765     13.02565         0.001244      0.441714      0.327779
Pb       7.66849      3.99852      4.25747         0.066783     -0.187898     -0.319801
Pb       7.67250      3.92447     17.37276        -0.096942      0.083713      0.018086
Pb       7.70540     15.38425      4.28257         0.516813     -0.135401     -0.140038
Pb       7.74664      0.20810     17.39465        -0.428695     -0.082833      0.010529
Pb       7.50289      3.87381      8.58818         0.724183      0.085337      0.406347
Pb       7.60920     15.35774      8.63058         0.096844      0.297954      0.048878
Pb       7.57608      3.92734     13.00478        -0.143094      0.125612      0.127396
Pb       7.64210      0.13231     13.07869        -0.030268     -0.118038     -0.244745
Pb       7.71385      7.74659      4.31948        -0.100484      0.122486     -0.363299
Pb       7.54936      7.80747     17.32871         0.314851     -0.197196      0.276180
Pb       7.65861      7.75413      8.78682         0.064448     -0.043640     -0.330558
Pb       7.68538      7.93106     13.10243         0.025231     -0.840999     -0.738134
Pb       7.58707     11.57238      4.31244         0.641161      0.202188     -0.515155
Pb       7.61746     11.55060     17.27627        -0.129750      0.065456      0.344278
Pb       7.66124     11.52763      8.77708        -0.055777     -0.096373      0.127798
Pb       7.66128     11.81667     13.18323         0.057051     -0.552170     -0.886532
Pb      11.41684      4.05046      4.47257         0.793183      0.288153     -0.929033
Pb      11.62391      4.11803      0.06555        -0.301303      0.048806     -0.425338
Pb      11.59830     15.52072      4.36724        -0.174156     -0.494125     -0.748288
Pb      11.51379      0.27599      0.01009         0.383867      0.353353     -0.548139
Pb      11.47223      3.87793      8.65411         0.184657     -0.093803     -0.054692
Pb      11.40704      0.17828      8.65156         0.324256     -0.033432     -0.115496
Pb      11.53007      4.13718     13.09087         0.140322     -0.161028     -0.369141
Pb      11.50222      0.26905     12.89888         0.066654     -0.215669      0.611628
Pb      11.43239      7.93496      4.39775         0.551058     -0.516110     -0.187512
Pb      11.48218      7.89025     17.33429        -0.546245     -0.668909      0.254152
Pb      11.58901      7.82230      8.73105        -0.453168      0.434343     -0.055986
Pb      11.56390      7.94408     13.01163        -0.293359     -0.619753     -0.099857
Pb      11.52418     11.41872      4.33452        -0.535338      0.920375      0.057865
Pb      11.44326     11.84228     17.17934        -0.384591     -0.723294      0.973122
Pb      11.53795     11.64774      8.69417        -0.286412      0.100756      0.120760
Pb      11.47695     11.83473     12.93329         0.334024     -0.128092      0.323716
Ti       1.87719      1.80738      2.34469         0.595314      0.588259      2.356760
Ti       1.92837      1.95952     15.40904        -0.296050     -0.111126      0.958122
Ti       1.88795     13.38426      2.26705         0.660172      1.223605      0.087605
Ti       1.94990     13.51201     15.38827        -0.336803     -0.734785      0.327846
Ti      13.48247      2.15866      2.37173         0.280409      0.469021     -0.233907
Ti      13.49159      2.15971     15.37882        -0.649726      0.445802      0.442346
Ti      13.48866     13.55774      2.27424        -0.820342      1.355894      0.942751
Ti      13.43583     13.66024     15.39725         0.386256      0.629756     -0.203148
Ti       1.96030      1.91463      6.58431        -0.122540     -0.416182      0.022581
Ti       2.01181     13.39098      6.65816        -0.921942      0.246612      0.304497
Ti      13.56558      2.08250      6.54073        -0.815058     -0.201768      1.721834
Ti      13.41509     13.53284      6.57058         0.418849      0.947200      1.052505
Ti       1.88353      1.96235     10.92247        -0.390808     -0.196055      1.324055
Ti       1.89358     13.47801     10.96425         0.228396     -0.192328      3.521473
Ti      13.43680      2.17417     10.97794        -0.374852     -0.229428     -0.067055
Ti      13.43579     13.71063     10.98111         0.040113     -0.781993      2.962190
Ti       1.87730      5.79285      2.27947         0.106176     -0.451494      1.143223
Ti       1.86818      5.76152     15.47936         0.074021     -0.437118      0.001384
Ti      13.44995      6.07490      2.31672        -0.484182     -1.707332      0.381788
Ti      13.47374      6.00143     15.43041        -0.970150     -0.724688     -0.547025
Ti       1.90027      5.81758      6.71574         1.046697      0.081723      0.045611
Ti      13.41764      5.97701      6.75598         0.195233      0.193056     -0.133198
Ti       1.90692      5.79384     10.99135        -1.017404     -1.914248     -0.504226
Ti      13.39022      5.99597     10.98082         0.849455     -0.594441      0.827562
Ti       1.82046      9.59482      2.24504         0.962102     -0.726288     -0.584776
Ti       1.89748      9.58640     15.41200         0.701247      0.831334     -0.092832
Ti      13.43587      9.82473      2.25850        -0.398988     -1.065164      0.640473
Ti      13.36492      9.84125     15.41858         0.867665     -0.507676     -1.036017
Ti       1.97559      9.63755      6.69986         0.155673     -1.078325      2.767194
Ti      13.53741      9.83118      6.84923        -1.615827     -1.276957     -0.712811
Ti       1.83859      9.58397     11.00818         0.741817      0.785984      0.597912
Ti      13.39830      9.82730     11.06297         0.287557      0.606768      0.033112
Ti       5.84216      1.90442      2.32995        -0.908413      1.539777     -0.163043
Ti       5.72823      1.91599     15.33173         0.426405      0.657451      1.217505
Ti       5.80686     13.47826      2.33002        -0.105156      0.046102     -1.248244
Ti       5.79567     13.49192     15.36013        -1.225921      0.083058     -0.003841
Ti       5.88724      1.95599      6.50083        -0.752448     -0.605001      1.329008
Ti       5.88616     13.41644      6.60475        -1.791843      0.487212      0.605162
Ti       5.69128      1.88003     11.03737         0.385027      0.216852      0.923204
Ti       5.72744     13.48006     11.01509        -0.083566      0.109878      0.115587
Ti       5.76358      5.83825      2.37649        -0.217374     -0.267389     -2.195299
Ti       5.68172      5.73589     15.37778         0.322003     -0.519563      1.492452
Ti       5.70552      5.81450      6.70303         0.291812      0.544978     -0.146741
Ti       5.65491      5.77582     11.06662         0.653331      0.544644      0.834366
Ti       5.74206      9.63928      2.35030        -0.476226     -0.382828     -1.751815
Ti       5.70979      9.56558     15.26362        -0.008157      1.252685      2.490911
Ti       5.80920      9.65137      6.64652         0.116718     -0.764009      2.859726
Ti       5.66225      9.67827     11.11489         1.233695     -0.237541     -0.110239
Ti       9.67918      2.00979      2.32101        -0.323371      0.370707      0.729435
Ti       9.62031      2.13367     15.29868         0.242017     -0.262310      1.693210
Ti       9.70295     13.55185      2.18128        -1.113934     -0.395356      1.750893
Ti       9.56907     13.70159     15.35727         0.089998     -0.589109      0.635505
Ti       9.66799      2.04299      6.56407        -0.264061     -0.721378      2.063331
Ti       9.58648     13.51151      6.67046         1.013047      0.266139      0.941041
Ti       9.55627      2.10831     11.05137         0.149189     -0.942041      0.082968
Ti       9.51394     13.62686     10.96550         0.228169     -0.080321      0.446494
Ti       9.67634      5.92407      2.34296        -0.237747     -0.393877     -0.660921
Ti       9.58082      5.88840     15.31566         0.038764      0.237932      1.542374
Ti       9.64331      5.90589      6.70809        -1.046359     -0.174671      1.897673
Ti       9.49616      5.80693     10.91498        -0.376450      1.468095      0.845492
Ti       9.55016      9.74993      2.20575        -0.318188     -0.066444      0.698577
Ti       9.62234      9.73272     15.28481        -1.465172      0.239770      1.310198
Ti       9.61818      9.72583      6.73575         0.516568     -0.512028      0.612018
Ti       9.53832      9.76550     11.06961        -0.194938     -0.731610     -0.071510
O       1.81854      1.91085      0.64587         0.104438     -0.029429     -2.015070
O       1.80549      1.96132     13.66328         0.465315     -0.060374     -0.318132
O       1.93485     13.41347      0.50306        -0.357747      0.002631     -0.151779
O       1.92711     13.47990     13.63769         0.051355      0.268469      0.038128
O      13.62936      2.02484      0.59293        -0.436298      0.281844      0.207646
O      13.43970      2.27139     13.59783         0.228537     -0.336095      0.417231
O      13.54503     13.56360      0.51767        -0.186562     -0.023659     -0.498368
O      13.32043     13.70757     13.65979         0.139891     -0.144416     -0.283742
O       1.87839      1.76157      4.86925         0.235028      0.282843     -0.691839
O       1.94841     13.30880      4.92071         0.264795      0.085598     -0.160282
O      13.43398      2.23197      4.82679        -0.007291     -0.464659     -0.719324
O      13.36183     13.52568      4.81971         0.095639     -0.321738     -0.089479
O       1.84000      1.76594      9.20142         0.348376      0.477891     -0.698220
O       1.84270     13.71359      9.28862         0.278165     -0.923380     -2.143979
O      13.45834      1.94607      9.24403        -0.125446      0.644112     -0.391726
O      13.54933     13.68334      9.31940        -0.067219     -0.167115     -2.498029
O       1.79199      5.72320      0.55062         0.326871      0.187914     -0.642600
O       1.84951      5.78075     13.71404         0.261468     -0.064849     -0.004019
O      13.30711      6.00990      0.53332         0.285371      0.534795      0.631499
O      13.33370      5.91386     13.62416         0.239327      0.309865      0.676917
O       2.07589      5.80864      4.96662        -0.542872      0.129800     -0.279145
O      13.35863      5.96217      5.00042         0.214089      0.216588      0.292891
O       1.96724      5.76789      9.20770        -0.415747      0.216805      0.324383
O      13.61563      5.95299      9.24735        -0.380663      0.256519     -0.354527
O       1.81698      9.51969      0.46382         0.060907      0.343027      0.914678
O       1.99566      9.60544     13.63493        -0.220388     -0.356323     -0.143687
O      13.59025      9.79392      0.52916        -0.396289     -0.023528     -0.512642
O      13.29045      9.81925     13.65130         0.438119     -0.237651      0.231867
O       2.00851      9.65145      5.01898        -0.280210      0.035540     -2.707344
O      13.44570      9.64364      5.07612         0.193533      0.664186     -0.777587
O       1.84472      9.67588      9.25105         0.037236     -0.202685      0.304011
O      13.34609      9.93813      9.30190         0.483114     -0.461099     -0.603720
O       5.87639      2.01776      0.54475        -0.205897     -0.312744      0.718170
O       5.68158      1.90158     13.57113        -0.319225      0.022936     -0.454426
O       5.73898     13.55052      0.54039         0.180807     -0.052447      0.900528
O       5.67649     13.58546     13.56405         0.480322     -0.242604      1.139726
O       5.92996      1.85468      4.79782        -0.424070      0.377314     -0.855983
O       5.87951     13.42702      4.84708        -0.430044     -0.024308     -0.545484
O       5.75609      1.87802      9.31969         0.053759      0.007669     -1.226796
O       5.99534     13.45303      9.22773        -0.864342      0.053375      0.238033
O       5.88576      5.75492      0.53189        -0.694931      0.143624      1.581812
O       5.65150      5.72345     13.65074        -0.430214      0.184705     -0.388080
O       5.55446      5.83114      4.95253         0.659483      0.140738     -0.437782
O       5.69510      5.88308      9.33814         0.096076     -0.357775     -0.890701
O       5.86311      9.59122      0.57117        -0.308475      0.145043      1.017964
O       5.63149      9.52793     13.55112         0.109464      0.355961     -1.234881
O       5.85088      9.66513      4.95376        -0.254812      0.006045     -2.134392
O       5.84467      9.81203      9.33125        -0.311898     -0.343778      0.353537
O       9.50709      2.01150      0.58598         0.441836     -0.147688      0.021815
O       9.63122      2.09747     13.58107        -0.001137     -0.026670     -0.830300
O       9.39798     13.52307      0.48057         0.870385      0.268700     -1.160897
O       9.66220     13.56204     13.61437        -0.416581      0.402530     -0.130192
O       9.83891      1.98798      4.85600        -0.510994      0.260016     -1.139746
O       9.77331     13.47507      4.97267        -0.235712     -0.046082     -0.671507
O       9.61723      2.03345      9.29169        -0.101405      0.056773      0.121622
O       9.43742     13.54268      9.21946         0.338141      0.390034     -0.368312
O       9.66343      5.89385      0.59783         0.079481     -0.025661     -0.148853
O       9.69677      6.04662     13.60678        -0.215899     -0.593939     -0.414332
O       9.70476      5.90635      4.96843        -0.120736     -0.101541     -0.733263
O       9.41689      5.85778      9.14018         0.381507     -0.376771      1.064654
O       9.40936      9.71539      0.48201         0.410856      0.097287      0.098964
O       9.38969      9.66299     13.55389         0.995914      0.237154     -0.488761
O       9.75178      9.70817      4.96939        -0.727503      0.200242     -0.358756
O       9.68480      9.61899      9.30923        -0.371377      0.571525      0.035792
O       3.83520      1.83404      2.66623         0.371448      0.202108      0.162320
O       3.84718      1.97623     15.89661        -0.675306     -0.584919     -0.334986
O       3.83368     13.48508      2.58070         0.184402      0.017567      0.773321
O       3.83703     13.60229     15.81666         0.240010     -0.099897      0.053339
O      15.35887      2.08122      2.79106        -0.234569      0.138630      0.385565
O       0.04659      2.02834     15.87801        -0.471158     -0.440087     -0.298846
O       0.02636     13.37938      2.76157        -0.781388     -0.480698      0.005004
O      15.29374     13.48206     15.68829         0.492336      0.534943      0.398600
O       3.85641      1.83787      6.94043         0.852340      0.357997      0.160716
O       3.84587     13.43192      7.13702         0.683909      0.003782     -0.306375
O       0.07092      1.98076      6.93796        -0.851359      0.017672      0.174991
O      15.35940     13.46290      6.93163         0.292625      0.177986      0.467549
O       3.73734      2.03131     11.37314         0.478578     -0.260944      0.280766
O       3.81470     13.34973     11.51798        -0.685340      0.403274     -0.986213
O      15.32533      2.11942     11.30398        -0.019682     -0.198379      0.604736
O      15.33483     13.65870     11.45242        -0.145235      0.370182      0.044811
O       3.79323      5.81888      2.81671         0.439425      0.050334     -0.709230
O       3.78230      5.67806     15.97932         0.644079      0.531109     -0.528105
O       0.00337      5.65360      2.77364        -0.336120      0.803940     -0.050614
O      15.31159      6.00633     15.83565         0.312305      0.422977     -0.080343
O       3.82266      5.77559      7.17232         0.467941      0.353008      0.190858
O       0.06024      5.83535      7.09680        -1.025795     -0.466719     -0.046884
O       3.70789      5.65525     11.47217         1.154324      0.259491      0.320190
O      15.31526      6.02463     11.50331         0.145863      0.244256     -0.139702
O       3.76387      9.63456      2.67867        -0.024334     -0.111936      0.255385
O       3.90765      9.58123     15.88129        -1.215715      0.176286     -0.179496
O      15.33001      9.74036      2.78305        -0.038453      0.562480      0.023263
O       0.06506      9.53795     15.81632        -1.435408      0.023001     -0.288185
O       3.92859      9.56633      7.13551        -0.276823      0.474763     -0.109825
O       0.00358      9.60282      7.04789         1.065599      0.244942      0.468576
O       3.81229      9.72998     11.36290        -1.098843      0.106084      0.012827
O      15.35398      9.80265     11.46249        -0.256274     -0.309684      0.004426
O       7.69682      2.06510      2.79236         0.806542     -0.182758     -0.117720
O       7.69227      2.03485     15.74618         0.108092      0.038674     -0.315585
O       7.73925     13.59084      2.72304        -0.823095     -0.565158      0.163993
O       7.69036     13.44926     15.72982        -0.474268      0.731245     -0.451589
O       7.70438      1.97018      7.01774         0.151923      0.459662     -0.279390
O       7.66097     13.46214      6.96116         1.473999     -0.012305      0.151488
O       7.59641      1.85280     11.58073         0.422779      0.545379     -0.732906
O       7.63297     13.75841     11.40309         0.288836     -0.373877      0.565418
O       7.66947      5.89529      2.68444         0.352332     -0.480484      0.907319
O       7.64743      5.64626     15.76042         0.063309      0.894599     -0.533540
O       7.64479      5.70835      7.14311         0.193147      0.379733     -0.731666
O       7.57095      5.82710     11.57203         0.450075      0.295721     -0.702507
O       7.57250      9.60575      2.76385         1.697686      0.431146      0.277343
O       7.63675      9.74318     15.75727        -0.254360     -0.276367     -0.595035
O       7.72307      9.66079      7.19947        -0.085944      0.154854     -0.527642
O       7.67756      9.68334     11.55274        -0.652841      0.093094     -0.410014
O      11.60657      2.02191      2.59396        -1.060685     -0.211390      0.264253
O      11.63275      2.05949     15.78536        -0.559991     -0.011386      0.192540
O      11.52452     13.59737      2.58273         0.584016     -0.400127     -0.200935
O      11.48815     13.62217     15.79934        -0.165211      0.334169      0.076314
O      11.54764      1.97845      7.05394         0.519766      0.246299      0.000388
O      11.60756     13.58047      7.19229        -0.719302      0.342463     -0.301753
O      11.50053      2.26126     11.43985        -0.039117     -0.366602     -0.201260
O      11.47698     13.57893     11.40914        -0.037646     -0.015650     -0.482686
O      11.53107      5.94936      2.80954         0.465462      0.222559     -0.105653
O      11.45264      5.98732     15.83960         0.248873     -0.201961     -0.022607
O      11.54616      5.91336      7.33277        -0.658255      0.019342     -0.892702
O      11.45336      5.88502     11.38899        -0.008001      0.065788     -0.528658
O      11.49168      9.70891      2.66980         0.355892      0.044985     -0.260539
O      11.48430      9.80723     15.79481        -0.265378     -0.118150     -0.135248
O      11.56689      9.66212      7.04549        -1.085538      0.169084      0.828267
O      11.53133      9.79486     11.46960        -1.024295      0.011043     -0.016129
O       1.93102      3.81511      2.76353        -0.058657      0.097073     -0.053414
O       1.92777      3.86671     15.92066        -0.084349     -0.565963     -0.164976
O       1.84882     15.30420      2.76549         0.206074     -0.518158     -0.016129
O       1.79673     15.37030     15.85086         0.253556      0.612012     -0.294549
O      13.44598      4.10098      2.69214        -0.008662     -0.595977      0.004742
O      13.46256      4.12641     15.96118        -0.259529     -0.690927     -0.551136
O      13.43336     15.43650      2.74906         0.306822      0.513430      0.143818
O      13.51923      0.24004     15.85798         0.019772     -0.400386     -0.392408
O       1.98729      3.87170      7.04904        -0.431887     -0.621682     -0.211426
O       1.93439     15.38321      7.06225        -0.272456     -1.129129     -0.259227
O      13.43510      4.07466      7.08552         0.135743     -0.983791      0.069299
O      13.63430     15.54229      6.89064        -0.516045     -0.230021     -0.292115
O       1.77702      3.86850     11.43397         0.181097     -0.735180     -0.358939
O       1.86932     15.33918     11.49483         0.237153      0.677446     -0.051575
O      13.50747      4.09693     11.35733        -0.371141     -0.349135     -0.069994
O      13.35956      0.21071     11.41769         0.152655      0.574329      0.127855
O       1.85612      7.64649      2.63960         0.053286      1.187033      0.354134
O       2.00660      7.67836     15.75640        -0.254472     -0.302908      0.261824
O      13.46547      7.88082      2.87683         0.109331      0.641340     -0.586291
O      13.31017      7.89642     15.83087         0.682328      0.306867     -0.104664
O       1.94762      7.73386      7.15205        -0.010508     -0.113331     -0.035705
O      13.43575      7.88314      7.19481         0.394729     -0.381727      0.431555
O       1.89843      7.62456     11.42099         0.108639      1.486556      0.094970
O      13.51936      7.91392     11.44005        -0.900785     -0.178617     -0.061113
O       1.88008     11.53077      2.66622        -0.060311     -1.169470      0.215204
O       1.98115     11.53521     15.70822         0.189251     -0.156655      0.466883
O      13.40522     11.64911      2.71648         0.395968     -0.077050      0.067098
O      13.41103     11.67155     15.79053        -0.157063      0.587048      0.277213
O       2.01776     11.45120      7.17419        -0.174280      1.276540      0.098633
O      13.34671     11.67898      7.12424         0.394107      0.423222     -0.040931
O       1.73122     11.51224     11.53101         0.933527     -0.072563     -0.914347
O      13.46106     11.71838     11.50059        -0.187115      0.192634     -0.175624
O       5.75039      3.90935      2.83797         0.110360      0.019172     -0.320587
O       5.67869      3.79775     15.75802         0.085352      0.878938      0.023244
O       5.76342      0.09506      2.72729         0.408441     -1.333453      0.085997
O       5.80541     15.44653     15.82601        -0.039492     -0.679820     -0.069765
O       5.69489      3.89139      7.02521         0.120056     -1.108895     -0.082172
O       5.85844     15.37735      6.93311        -0.420823      0.023740      0.193254
O       5.80293      3.86458     11.41834        -0.539250     -0.333164      0.137758
O       5.60332     15.36065     11.44206        -0.311738      0.664270      0.080818
O       5.76523      7.71166      2.77848        -0.418317      0.278258      0.265247
O       5.67923      7.76674     15.85006         0.503552     -1.707828     -0.608595
O       5.80747      7.72529      7.11236        -0.033400     -0.126961     -0.017389
O       5.57403      7.76579     11.43514         0.260680     -0.518127     -0.042549
O       5.70734     11.57200      2.74450         0.491692      0.001734      0.031291
O       5.61833     11.56586     15.80683         0.544069      0.583900     -0.633617
O       5.84193     11.52532      7.09694        -0.436277      0.537318     -0.177402
O       5.80521     11.64231     11.47591         0.254875     -0.467989      0.266102
O       9.74626      3.97652      2.77500        -0.739434     -0.460352      0.122178
O       9.71900      3.91667     15.89069        -0.183175      0.848723     -0.702310
O       9.61120     15.42253      2.74894         0.237561      0.953409     -0.217274
O       9.61962      0.23275     15.88497         0.032712     -0.906773     -0.546119
O       9.65886      3.88555      7.11405         0.063184      0.418648     -0.590645
O       9.62573     15.45550      7.05337        -0.226723     -0.156468     -0.077644
O       9.41410      3.93131     11.50218         0.320490      0.946245     -0.523267
O       9.66737      0.16170     11.46817        -0.184553      0.157995     -0.338148
O       9.60641      7.80293      2.69585        -0.286314      0.814744      0.425436
O       9.49200      7.86853     15.76448         0.370991     -0.642623     -0.208883
O       9.50348      7.75918      7.08094         0.507771     -0.092076     -0.010935
O       9.45889      7.76374     11.33370         0.509741     -0.022606      0.204530
O       9.56399     11.62771      2.65507         0.038717     -0.500233      0.138981
O       9.50758     11.66491     15.69352         0.782539     -0.007848      0.019904
O       9.65955     11.60452      7.18154        -0.104672      0.189044     -0.397472
O       9.37449     11.73258     11.41018         0.699308     -0.432890      0.105500
