  # total energy = -7879.35691843 
CRSYTAL
PRIMVEC
    15.3600000000000000    0.0000000000000000    0.0000000000000000
     0.0000000000000000   15.3600000000000000    0.0000000000000000
     0.2400000000000000    0.0000000000000000    17.440000000000000
PRESSURE
0.746539 0.711977 0.245878 -0.079975 -0.965105 0.023407
PRIMCOORD
320 1
Pb       3.83626      3.80202      4.32754        -0.321281      0.095999     -0.383077
Pb       3.99265      3.81439     17.40222         0.287815      0.286844     -0.294337
Pb       3.83015      0.05279      4.24793         0.048709     -0.591356     -0.110823
Pb       4.20243     15.29094     17.40501        -0.250315      0.291521     -0.583489
Pb      15.40907      3.91571      4.37592         0.487038     -0.028318     -0.606238
Pb      15.43851      3.81970     17.38837         0.140901      0.022167     -0.500617
Pb      15.40893     15.20121      4.28041        -0.010522     -0.028223     -0.047650
Pb       0.39796      0.07738     17.36392        -0.681340     -0.446542     -0.172477
Pb       3.78479      3.82811      8.77834         0.732321      0.039943     -0.522644
Pb       3.99200      0.03523      8.63201        -0.216858     -0.065442     -0.663471
Pb      15.40650      3.81258      8.79268        -0.195708      0.027859     -0.922164
Pb       0.20460     15.34218      8.68702        -0.450971      0.185695     -0.750100
Pb       4.04824      3.70118     13.04742        -0.183061      0.241388     -0.304543
Pb       3.95737     15.29798     12.90803         0.289082      0.305580      0.509263
Pb      15.45824      3.68528     13.13014         0.294073      0.176005     -0.033939
Pb      15.47774     15.20318     13.00717        -0.191975      0.030108     -0.404212
Pb       3.93114      7.67110      4.31804        -0.338935      0.064283     -0.121162
Pb       3.99833      7.81006      0.06163        -0.067363     -1.055882     -0.570465
Pb      15.39872      7.73822      4.32073        -0.113247     -0.210444     -0.550406
Pb       0.02657      7.58007      0.06622        -0.246418     -0.017406     -0.649928
Pb       3.92529      7.74049      8.74746         0.589260      0.108385     -0.601171
Pb       0.18190      7.67767      8.71664        -0.382218     -0.044869     -0.651339
Pb       3.93602      7.63524     13.20926         0.065200      0.353310     -1.094737
Pb       0.26419      7.73935     13.08509        -0.457695      0.009335     -0.085054
Pb       3.90420     11.51705      4.33351        -0.071225      0.238242     -0.347186
Pb       4.01038     11.47450     17.34140         0.160090     -0.229475     -0.634031
Pb      15.27793     11.40411      4.29274         0.212123      0.194236     -0.210626
Pb      15.55864     11.47031     17.43879        -0.057429      0.260602     -0.862559
Pb       3.90247     11.47713      8.61599         0.467993     -0.174766     -0.256384
Pb       0.17120     11.60115      8.70017        -0.114476     -0.205487     -0.922886
Pb       4.00246     11.50072     13.13575        -0.182131     -0.111098     -0.958614
Pb      15.43816     11.42288     13.05963        -0.465925      0.066787     -0.004931
Pb       7.71184      3.82767      4.42515        -0.303945     -0.290998     -0.486623
Pb       7.77719      3.76648     17.41794         0.095235     -0.067527     -0.260300
Pb       7.60367     15.26305      4.42317         0.271167      0.332442     -0.645826
Pb       7.63943     15.33358      0.03237         0.135193      0.409585     -0.421762
Pb       7.82178      3.76106      8.74629        -0.272124      0.027671     -0.468774
Pb       7.72827      0.00278      8.66225         0.154154      0.016257     -0.537043
Pb       7.85150      3.96802     12.89695        -0.288895     -0.761813      0.529746
Pb       7.84736      0.01683     13.01895         0.090206     -0.011423     -0.872611
Pb       7.75616      7.54213      4.30718        -0.645841      0.282169      0.597313
Pb       7.96590      7.74010     17.42055        -0.442345     -0.322890     -0.201838
Pb       7.77582      7.71278      8.72041        -0.330299     -0.427566     -1.108517
Pb       7.84804      7.71527     13.09861        -0.271754     -0.085895     -0.438989
Pb       7.87763     11.47136      4.38350        -0.632160      0.161351     -0.145291
Pb       7.61233     11.63233      0.01080        -0.066862     -0.533516     -0.269512
Pb       7.73274     11.45389      8.62199        -0.349716      0.014520     -0.361524
Pb       7.79956     11.60273     13.04279         0.374790     -0.363900     -0.718946
Pb      11.59694      3.92013      4.41671         0.174550     -0.102714     -0.525721
Pb      11.72619      3.91524     17.42195        -0.167125     -0.644876     -0.258990
Pb      11.53935      0.07112      4.42114         0.208841     -0.351828     -0.879864
Pb      11.51535      0.11634      0.06851         0.071159      0.465168     -0.283116
Pb      11.72777      3.83005      8.76105        -0.409935      0.532085     -0.262626
Pb      11.62943      0.02933      8.66327         0.003930     -0.101211      0.074869
Pb      11.61992      3.73075     12.98440        -0.155679      0.926337      0.209872
Pb      11.61234     15.28274     13.03743        -0.339648     -0.610406     -0.729313
Pb      11.50995      7.59596      4.30083         0.463179      0.126872      0.191220
Pb      11.62473      7.61759     17.34937         0.732126      0.061800     -0.113290
Pb      11.59391      7.65767      8.74196        -0.148941     -0.343487     -0.745048
Pb      11.82726      7.60261     13.01654        -0.215820      0.095051      0.203290
Pb      11.66144     11.41234      4.27252        -0.173516      0.321301     -0.276957
Pb      11.46327     11.61839      0.00288         0.427642     -0.353644     -0.521509
Pb      11.54898     11.53911      8.77863         0.059582     -0.300073     -0.732918
Pb      11.63348     11.43293     13.06041         0.240504      0.417826      0.061706
Ti       1.90157      1.84594      2.20893         0.430781      0.574551     -0.193525
Ti       2.20472      1.84216     15.40559        -0.512213      0.926276      0.227312
Ti       2.01066     13.33976      2.12837        -1.060426      0.337478      1.254094
Ti       2.14152     13.45048     15.35063        -0.542929     -0.733986      0.107944
Ti      13.54604      1.85870      2.36852        -0.910551      0.654539     -1.057497
Ti      13.63604      1.89361     15.27039         0.055950      0.563158      1.743311
Ti      13.50885     13.46576      2.18727        -0.766627     -0.521845     -0.671314
Ti      13.59712     13.56851     15.40832         1.449062     -1.565635      0.787739
Ti       1.92955      1.95962      6.53593         0.211776     -0.782915      2.271199
Ti       2.01472     13.50426      6.63509        -0.375477     -0.199783     -0.416340
Ti      13.47703      1.92630      6.60539         1.196872     -0.287637     -0.972418
Ti      13.40495     13.46345      6.69258         2.603774     -0.348144     -0.309382
Ti       1.98735      1.89279     10.91371         0.522046      0.441984      1.346468
Ti       2.03883     13.51251     10.93197         0.677998     -1.449255      2.471643
Ti      13.51035      1.92131     11.02462         0.377198     -1.169601      0.668523
Ti      13.63875     13.34424     10.87270        -1.506443      1.184747      2.360191
Ti       1.99390      5.75507      2.32389        -0.589128     -0.312217      1.452822
Ti       2.15757      5.72143     15.36103        -0.062667     -0.034556      1.383348
Ti      13.44600      5.69720      2.31590         0.619251      0.652448     -0.480823
Ti      13.62810      5.75976     15.36643         0.078311     -0.154009      0.156612
Ti       1.99999      5.71849      6.74469        -0.719589      0.499859     -2.489146
Ti      13.52639      5.76232      6.67610        -0.024310      0.992238      0.346542
Ti       2.05849      5.71833     11.06131         0.489970      0.487965      1.496893
Ti      13.70538      5.70449     11.06618        -2.151601      0.296617      0.436246
Ti       1.94474      9.57110      2.20812        -0.192096      0.044414      1.245090
Ti       2.08167      9.50983     15.46262         0.129437      0.135086      0.248575
Ti      13.36672      9.53362      2.16097         0.790549     -0.672847     -0.730538
Ti      13.62247      9.61645     15.49276        -0.071760      0.237096     -1.009938
Ti       1.97322      9.63662      6.63347         0.443407     -0.111183      0.474890
Ti      13.51219      9.61516      6.83872        -0.339734     -0.370202     -1.478398
Ti       2.00931      9.62832     10.93585         1.187882     -0.206032      0.018789
Ti      13.56670      9.55621     10.94219        -0.187540      0.009923      1.284663
Ti       5.79419      1.90366      2.36423         0.501733      0.027345      0.104549
Ti       5.90733      1.73729     15.26860         0.219764      1.111419      1.178358
Ti       5.82185     13.45000      2.26598        -0.130385     -0.851925      1.024774
Ti       5.98205     13.25889     15.27094        -0.707158      1.255221      0.639667
Ti       5.82963      1.89978      6.62161         0.089631     -0.259056      0.178168
Ti       5.87766     13.43560      6.65468        -0.971809     -0.895815     -0.164610
Ti       5.90859      1.90373     10.96504         0.083738      0.217762     -0.950841
Ti       5.88253     13.44666     10.92732         0.129759     -1.017611      0.140227
Ti       5.79513      5.71778      2.45007        -0.345533      0.241355     -0.678717
Ti       5.92648      5.69883     15.35242        -0.518480      0.070617      0.215991
Ti       5.80829      5.66374      6.60651         0.600953      1.021329      1.110435
Ti       5.84787      5.76606     10.96621        -0.055611      0.645653     -1.429302
Ti       5.82748      9.64083      2.33897        -0.218949      0.539916      1.246440
Ti       6.00182      9.52812     15.22080        -0.323056     -0.062438      0.349807
Ti       5.82682      9.61190      6.49421        -0.215785     -0.589384      2.243042
Ti       5.87089      9.56484     11.06527        -0.594428     -0.425424      2.226736
Ti       9.66064      1.88742      2.46494        -0.703890     -0.347756     -1.640043
Ti       9.75067      1.92667     15.38493         0.242715     -0.600214      0.834497
Ti       9.62831     13.35617      2.26248         0.215249      0.506861      1.738819
Ti       9.79748     13.44704     15.45100         0.345175     -0.622097     -1.518907
Ti       9.71121      1.89560      6.56324        -1.173153     -0.412776      1.411263
Ti       9.73418     13.37954      6.70928        -0.935091      0.074841      1.476913
Ti       9.74318      1.91260     10.99251        -0.819057     -0.417606      1.756853
Ti       9.76244     13.32369     10.92678         0.066785      2.270859      1.429602
Ti       9.61364      5.64242      2.34251        -1.097878      0.396346     -0.928764
Ti       9.69043      5.69938     15.29860         0.999350      0.140977     -0.281655
Ti       9.65853      5.64293      6.71308        -0.036261      1.100733      0.878824
Ti       9.71548      5.81015     11.00554         0.514415     -0.807499     -0.671708
Ti       9.57296      9.50626      2.43001         0.210151      0.445908      0.917542
Ti       9.77944      9.56089     15.37448         0.404855      1.049814      0.106706
Ti       9.68668      9.54541      6.64810        -0.552131     -0.607458      0.628740
Ti       9.71303      9.54314     11.00644        -0.539937      0.257088     -0.471108
O       1.88830      1.83037      0.38937         0.129984      0.405285      0.740149
O       2.31092      1.76448     13.68380        -0.210890      0.371264     -2.010673
O       1.78588     13.34688      0.38609         1.055496      0.006997     -0.261721
O       2.16764     13.44396     13.55507        -0.363930      0.099960     -0.229152
O      13.48863      1.84278      0.56688         0.142777      0.438673      0.190873
O      13.64344      2.02288     13.53188        -0.116236     -0.580749     -1.286912
O      13.35508     13.36645      0.39417         0.533909      0.220048      1.009245
O      13.66248     13.47552     13.65058         0.175233      0.285822     -0.796157
O       1.89546      1.96822      4.84244         0.226506     -0.291293     -1.859917
O       1.82441     13.47444      4.87822         0.281540      0.017274     -0.094060
O      13.42720      1.76389      4.80754        -0.079882      0.503179      0.062395
O      13.64789     13.41414      4.91136        -0.634629      0.077183     -0.314164
O       1.94115      1.94662      9.18888         0.077529      0.296880     -1.236690
O       2.05508     13.71402      9.26884        -0.054858     -0.705413     -2.886333
O      13.45516      1.99469      9.29774        -0.101298      0.053227     -1.649028
O      13.53562     13.39108      9.17479        -0.147653     -0.182218     -1.643273
O       2.02261      5.84926      0.62731        -0.212379     -0.173354     -1.293653
O       2.17153      5.73818     13.60790         0.171952      0.013742     -1.053767
O      13.41291      5.62945      0.54291         0.018181     -0.173476     -0.440662
O      13.51983      5.67025     13.60101         0.275722      0.188725     -0.468498
O       1.89047      5.64342      4.88449         0.135407      0.304981      1.278926
O      13.41464      5.85070      4.91493         0.368218     -0.373291     -1.205665
O       1.83848      5.65996      9.34311         0.485437     -0.252506     -1.716897
O      13.50066      5.77863      9.32321         0.672985     -0.065677     -0.661830
O       1.87250      9.56435      0.45745         0.537796     -0.226549     -0.629738
O       2.19188      9.50693     13.70084        -0.716103      0.006288     -1.044217
O      13.27860      9.48280      0.37199         0.163256      0.505899      0.554698
O      13.63206      9.57216     13.62345         0.070984      0.292947      1.112364
O       1.97681      9.59714      4.87651        -0.464725      0.051671     -0.379510
O      13.49108      9.54661      5.01301         0.300434      0.313869      0.108423
O       2.07399      9.57299      9.15065        -0.118900     -0.214402      0.166597
O      13.54095      9.46720      9.19574         0.110632      0.413778     -0.615291
O       5.78272      1.79036      0.60420         0.305540      0.120081     -0.922294
O       5.92427      1.85288     13.53906        -0.265251      0.021113     -1.098603
O       5.86517     13.39537      0.49561        -0.116098      0.319892     -0.801534
O       5.83182     13.31205     13.52359         0.435952     -0.190498     -0.377475
O       5.97596      1.75149      4.85714        -0.524371      0.163780     -0.298643
O       5.65256     13.39449      4.89774         0.783519      0.240755     -0.468577
O       5.94487      1.96471      9.13912        -0.050351     -0.207532      0.471529
O       5.79874     13.32051      9.15178        -0.022739      0.501634      0.273336
O       5.74592      5.88072      0.71458         0.257086     -0.158243     -1.407945
O       5.87875      5.72745     13.59654        -0.684401      0.212860     -0.493751
O       5.87622      5.67253      4.85508        -0.488343      0.135320     -0.791248
O       5.79007      5.72137      9.12961         0.232090      0.027745      0.535957
O       5.79134      9.65483      0.60653         0.433929     -0.437765     -1.352572
O       5.93436      9.44227     13.43517        -0.266180      0.385321      0.542533
O       5.87829      9.70926      4.79794        -0.449762     -0.034728     -2.000450
O       5.67472      9.64385      9.38883         0.324966     -0.250705     -2.954605
O       9.63764      1.95034      0.61714        -0.389650     -0.293850      0.501704
O       9.70094      1.91646     13.66482         0.134627     -0.533292     -0.840331
O       9.49324     13.42894      0.53570         0.000320     -0.271654     -1.842404
O       9.91008     13.40476     13.66109        -0.403199      0.488249      0.213076
O       9.55454      1.89277      4.80417         0.860649      0.087893     -0.204508
O       9.71148     13.17640      5.02888         0.278077      0.515539     -1.801221
O       9.66387      2.01329      9.28863         0.396419     -0.448406     -1.509051
O       9.88349     13.46625      9.19624        -0.300990     -0.393248     -0.810627
O       9.43622      5.59102      0.56683         0.376257      0.357738     -0.565014
O       9.86619      5.81841     13.53536        -0.371953     -0.257912      0.349226
O       9.73877      5.63391      4.95916        -0.063836     -0.236503     -1.164556
O       9.71152      5.82061      9.19628        -0.278572     -0.270152      0.221477
O       9.47362      9.54247      0.73277         0.056358     -0.222753     -2.491590
O       9.76059      9.62974     13.66170         0.530047     -0.385221     -1.687968
O       9.52863      9.52558      4.87965         0.704073      0.160695     -0.157686
O       9.56856      9.53335      9.20043         0.383473      0.073544      0.963860
O       3.88001      1.87608      2.66192        -0.347912      0.108635      0.299123
O       4.06232      1.90630     15.82029         1.468883      0.167567      0.409707
O       3.82965     13.38031      2.70522         0.537382     -0.034874     -0.497516
O       4.07595     13.29899     15.68191         0.181432     -0.403847      0.616996
O       0.04733      1.85147      2.60417         0.537153     -0.136506      0.315401
O       0.29914      1.93233     15.52030        -0.695658     -0.318956      0.761933
O       0.04903     13.57919      2.53339        -0.055732     -0.963691      0.177234
O       0.28017     13.52829     15.74909         0.157646      0.119090     -0.222969
O       3.88513      1.83013      6.87719         0.669988      0.334664      0.440391
O       3.93173     13.63793      6.90894        -0.473251     -0.828883      0.758557
O      15.38836      1.89500      6.83500         0.126463     -0.089725      0.891991
O      15.37355     13.45295      7.10636         0.676348      0.207274      0.491031
O       4.06481      1.76936     11.15982        -1.068952      0.209005      0.675046
O       4.01066     13.52771     11.44736        -0.925897     -0.805277     -0.712992
O      15.45026      1.98043     11.27662         0.432905      0.316623      0.663856
O      15.48782     13.38406     11.37135         0.559614      0.201489      0.130971
O       3.86533      5.67403      2.77564        -0.127458      0.113225      0.576215
O       4.05141      5.81313     16.10255         0.461576      0.122511     -1.302928
O       0.04171      5.80724      2.57137        -0.043262      0.043047      0.741161
O       0.22844      5.74254     15.82338        -0.084727     -0.311217      0.005946
O       3.91599      5.59878      7.00503        -0.278390      0.350998      0.351730
O      15.40539      5.80427      7.10196         1.121826     -0.408032      0.387933
O       3.96733      5.87660     11.29072        -0.864706     -0.301903      0.369243
O      15.48787      5.63338     11.50550         0.598197     -0.370278      0.052649
O       3.89800      9.74359      2.63417        -0.083402     -0.585376      0.181931
O       4.08373      9.62180     15.63239         0.160848     -0.204638      0.756891
O      15.31733      9.48472      2.45446         0.601691     -0.080178      0.797474
O      15.52914      9.46905     15.85138         0.417997      0.158048      0.051790
O       3.86627      9.65358      6.96416         0.681200     -0.048341      0.262190
O       0.11250      9.75283      7.10674        -0.244026     -0.456376      0.184673
O       3.89915      9.47977     11.36938        -0.254805      0.021747      0.588568
O      15.42950      9.59843     11.37930         1.050485      0.133172      0.187523
O       7.74193      1.77406      2.80792        -0.129818      0.361332     -0.232157
O       7.77218      1.90590     15.71389         1.027188     -0.753081      0.612645
O       7.71089     13.32815      2.68299         0.412162      0.720584      0.157009
O       7.84839     13.44666     15.68352         0.430135      0.236541      0.344936
O       7.80000      1.85641      7.04894         0.326423      0.230861      0.142646
O       7.73733     13.35757      7.07040         1.277040      0.012151      0.146731
O       7.78551      1.92963     11.34209         0.335222     -0.057177      0.499977
O       7.78822     13.38352     11.25214         0.517631     -0.210433      0.490380
O       7.63668      5.66567      2.69506         1.237092      0.188906      0.868061
O       7.83607      5.79796     15.43579         0.683307      0.069373      1.124912
O       7.75852      5.80816      6.91254        -0.061147     -0.680233      0.537516
O       7.78470      5.68986     11.40368         0.518478      0.415768     -0.146237
O       7.72861      9.68298      2.79298        -0.567261     -0.731062     -0.015332
O       7.90100      9.47048     15.52210        -0.432672      0.074565      1.011696
O       7.69529      9.66334      7.01292         1.193787     -0.332742      0.400822
O       7.86125      9.64022     11.56875         0.469353     -0.172176     -0.596436
O      11.55413      1.98239      2.63700         0.201483     -0.335448      0.968176
O      11.77841      1.92040     15.81184        -0.434944      0.130336     -0.250853
O      11.55185     13.31412      2.51237         0.695693      0.121219      0.538271
O      11.80386     13.34999     15.74737        -1.193711      0.020276      0.451499
O      11.61835      1.92421      6.91342        -1.127934      0.155180      0.408117
O      11.62505     13.40901      7.13716        -0.992022      0.275112      0.119635
O      11.60009      1.91593     11.51640         0.514941     -0.594356     -0.392923
O      11.66037     13.45112     11.40539         0.478291     -0.103215     -0.114221
O      11.49585      5.72649      2.66425         0.375144     -0.385943      0.410715
O      11.73813      5.63990     15.80017        -0.479225      0.223426      0.166533
O      11.67141      5.71335      6.97486        -0.758350     -0.000991      0.830590
O      11.55407      5.63492     11.29036         0.973033      0.906410      0.638808
O      11.55378      9.47821      2.69869        -0.638754      0.246778      0.408613
O      11.70202      9.72151     15.80066        -0.003949     -0.497506      0.210875
O      11.54948      9.42793      7.07443         0.535853      0.685932      0.204562
O      11.69448      9.54173     11.30972        -0.922118      0.142662      0.235751
O       1.92303      3.74970      2.74572         0.077824      0.408476     -0.342293
O       2.28844      3.86661     15.67127        -0.241434     -0.677519      0.541093
O       2.05673     15.29738      2.48799        -0.282774      0.358735      0.361729
O       2.36642     15.33876     15.74894        -0.580968     -0.946488      0.395155
O      13.58260      3.82717      2.68616        -0.442704     -0.171186      0.566845
O      13.75914      3.78580     15.64980        -0.076506      0.085652      0.714301
O      13.50128     15.33643      2.60598        -0.761626     -0.637746      0.490347
O      13.73026      0.04881     15.81831        -0.332758      0.050142     -0.307462
O       1.95683      3.82531      6.99295        -0.121969     -0.232641      0.816743
O       2.00452      0.02142      7.08274        -0.587525      0.369104     -0.042610
O      13.59462      3.86382      7.01958        -0.286693     -0.751465      0.308243
O      13.38929      0.04075      7.00664         0.229628     -0.334799      0.443758
O       2.23568      3.71661     11.42623        -0.301606      0.944833      0.067040
O       1.98579      0.03876     11.17462        -0.060659     -0.363411      1.420633
O      13.40014      3.82119     11.28655         0.837982      0.249074      0.637982
O      13.61778     15.32239     11.14248        -0.029517      0.039664      1.027404
O       2.07852      7.71232      2.81277        -0.260047     -0.167969     -0.383892
O       2.07847      7.58483     15.73387         0.494033      0.923883      0.379613
O      13.39573      7.61248      2.52019         0.068389      0.339690      0.749080
O      13.61759      7.64285     15.74052        -0.472335     -0.302944      0.143987
O       2.06458      7.65050      7.06018        -0.399379      0.062239      0.171172
O      13.64038      7.70749      7.06275        -0.177679     -0.213269      0.566242
O       1.94743      7.64422     11.37057        -0.206282     -0.173795      0.131870
O      13.65392      7.67343     11.57233        -0.153480     -0.646102     -0.784175
O       1.90292     11.44148      2.58153        -0.320126      0.797770      0.151091
O       2.10652     11.41812     15.72126        -0.144930      0.904582      0.400798
O      13.48398     11.42564      2.65425         0.146564      0.651078     -0.018558
O      13.85018     11.53821     15.78525        -0.543500     -0.202468     -0.047354
O       2.02694     11.57955      7.01364        -0.025679      0.300443      0.448544
O      13.44970     11.55552      7.06779        -0.103718     -0.564150      0.431783
O       2.03655     11.50786     11.05616         0.125332      0.454131      0.826756
O      13.56473     11.50411     11.47170         0.104617     -0.457680     -0.502757
O       5.80701      3.78849      2.66194         0.060598     -0.488893      0.496633
O       5.97737      3.85789     15.66797        -0.346957     -0.474916      0.656651
O       5.83114     15.34053      2.66472        -0.270278     -0.768976      0.450374
O       5.85442     15.24348     15.61730         0.305125      0.141425      0.400667
O       5.92025      3.76440      6.81847        -0.075317      0.292957      0.535764
O       5.95485     15.30248      7.01009         0.005305      0.830292      0.548346
O       5.81411      3.92362     11.26970         0.048047     -2.081281      0.725189
O       5.98225     15.31000     11.34820         0.116892      0.324832     -0.050813
O       5.78855      7.66860      2.78568        -0.057707      0.776114      0.082550
O       5.99179      7.71413     15.74720        -0.258114     -0.416512      0.384152
O       5.87456      7.73732      6.94661        -0.663994     -0.709238      0.239797
O       5.97540      7.61483     11.30441         0.277361      0.628232      0.468149
O       5.90014     11.59785      2.58445        -0.692595     -0.943848      0.489234
O       6.05122     11.41884     15.76335         0.030117      0.125632     -0.139209
O       5.88754     11.47595      7.00298        -0.825867      0.591408      0.458393
O       5.86683     11.40936     11.35818        -0.109578      1.882579      0.793183
O       9.51920      3.84813      2.69934         0.430782     -1.334785      0.810403
O       9.72536      3.78185     15.64399         0.040480      0.729337      0.630507
O       9.69353     15.23601      2.72647         0.132217      0.586721      0.322421
O       9.98202     15.30440     15.83351        -0.900791      0.743820      0.101486
O       9.70847      3.74702      7.18320        -0.028706      0.308231     -0.581235
O       9.64682     15.30881      6.98118         0.658907      0.657553      0.098655
O       9.70909      3.78796     11.42843        -0.078085      0.429678     -0.017426
O       9.72669     15.33002     11.44740        -0.137811     -0.010821      0.128240
O       9.46507      7.54303      2.76468         0.815961      0.729321     -0.153623
O       9.86616      7.63389     15.79589        -0.202303     -0.316030      0.189816
O       9.70803      7.58756      7.02815        -0.309885      0.624478      0.274186
O       9.72272      7.67977     11.33082        -0.116000      0.397942      0.320944
O       9.66708     11.44968      2.76702         0.227737      0.134607      0.011200
O       9.73839     11.50935     15.61574         0.006930      0.161564      1.346580
O       9.79070     11.45137      7.12355        -0.199340     -0.061731      0.224562
O       9.77972     11.56540     11.44446         0.033859     -1.770189     -0.167902
