  # total energy = -7881.86687548 
CRSYTAL
PRIMVEC
    15.3600000000000000    0.0000000000000000    0.0000000000000000
     0.0000000000000000   15.3600000000000000    0.0000000000000000
     0.2400000000000000    0.0000000000000000    17.440000000000000
PRESSURE
0.664529 0.781434 0.197166 -0.077429 -0.919639 0.03439
PRIMCOORD
320 1
Pb       3.96763      3.95117      4.29075        -0.196420     -0.564436     -0.011957
Pb       4.09161      3.79311     17.37249         0.148186      0.277444     -0.077400
Pb       4.03386     15.24782      4.46009        -0.647985      0.401475     -0.777296
Pb       3.67999     15.35194      0.06509         0.275532      0.301897     -0.624608
Pb      15.31745      3.81279      4.21817        -0.021663      0.274204      0.439059
Pb       0.09721      3.83772      0.07315        -0.084430      0.130056     -0.611313
Pb      15.33821      0.15911      4.44843         0.216708     -0.620009     -0.136662
Pb      15.07748     15.22793      0.10223         1.309077     -0.234664     -0.525972
Pb       4.13812      3.63882      8.57954        -0.647667      0.650138      0.475653
Pb       3.83362     15.33580      8.93825         0.328240     -0.342203     -0.886734
Pb      15.39237      3.81632      8.54968         0.426914     -0.055836      0.140400
Pb      15.45603     15.33001      8.68542        -0.131219     -0.080918     -0.617497
Pb       3.91556      3.82798     13.07721         0.246077      0.104855     -0.374916
Pb       4.14092      0.01850     13.14789        -0.711017     -0.234351     -0.254262
Pb       0.19748      3.84969     13.04500        -0.237552      0.052788     -0.063002
Pb       0.26637      0.23884     13.00842        -0.461294     -0.974408      0.138531
Pb       3.78596      7.66919      4.28743         0.373222     -0.271595     -0.170873
Pb       3.87471      7.64403     17.31026         0.890652     -0.244849      0.071212
Pb      15.37073      7.65162      4.33891        -0.404076     -0.170058     -0.522015
Pb      15.53359      7.85253     17.32409         0.048268     -1.329266     -0.290262
Pb       3.86387      7.65111      8.71577         0.266376     -0.062530     -0.149524
Pb      15.35473      7.68833      8.73270         0.315893     -0.477532     -0.758808
Pb       4.06481      7.81791     12.80351        -0.410632     -0.903985      0.628323
Pb      15.26948      7.66711     13.12612         0.926923     -0.014494     -0.337040
Pb       3.77195     11.46129      4.39472         0.560374     -0.026594     -0.474224
Pb       3.87991     11.64781      0.24252         0.003908     -0.563391     -1.240996
Pb       0.23914     11.58160      4.39521        -0.918732      0.122045     -0.636909
Pb       0.26665     11.42032     17.43090        -0.104199      0.913502     -0.811344
Pb       3.83990     11.53508      8.74674         0.393828     -0.322130     -0.077135
Pb      15.40203     11.35927      8.62829         0.020634      0.503619     -0.235723
Pb       4.02014     11.45389     13.09275        -0.326288     -0.006025     -0.631958
Pb       0.33608     11.54021     12.93720        -0.912166     -0.184334      0.681566
Pb       7.66678      3.86190      4.16355         0.192802     -0.289490      0.088318
Pb       7.81981      4.00741      0.00498        -0.505613     -0.648935     -0.391816
Pb       7.73509      0.17543      4.28529         0.069181     -0.647400     -0.504178
Pb       7.77224     15.22424     17.28374         0.756977      0.850738     -0.095621
Pb       7.72016      3.84298      8.65053         0.313137      0.428046      0.117442
Pb       7.88012      0.00104      8.67513        -0.221145      0.062807      0.223589
Pb       7.85260      3.51761     13.13459         0.236235      1.439829      0.812763
Pb       7.79674     15.27889     13.04965         0.693971      0.052061      0.391463
Pb       7.70963      7.81764      4.14581        -0.327617     -0.685626      0.683631
Pb       7.81289      7.59124     17.43131         0.125603      0.545266     -0.342259
Pb       7.87310      7.64998      8.80894        -0.404766     -0.542531     -0.316817
Pb       7.82513      7.59672     13.09361         0.106011     -0.049918     -0.427880
Pb       7.55926     11.48701      4.21091         0.375246      0.168432      0.135229
Pb       7.82582     11.43027     17.40944         0.300079     -0.491339      0.154857
Pb       7.83036     11.59835      8.77525        -0.071711     -0.566589     -0.210839
Pb       7.85157     11.42260     13.03322         0.402377     -0.376152     -0.067216
Pb      11.52738      3.84500      4.22383         0.001211     -0.134204     -0.211170
Pb      11.75085      3.83252     17.38683        -0.184057     -0.151063     -0.174179
Pb      11.50820     15.32205      4.36859         0.133125      0.020233     -0.183683
Pb      11.79463     15.13179     17.25047        -0.647032      0.531043      0.087513
Pb      11.53539      3.79150      8.61475        -0.091362      0.060923     -0.059539
Pb      11.48717     15.21722      8.74577         0.648645      0.571680     -0.549443
Pb      11.74922      3.94002     13.14961         0.085980     -0.418780     -0.297111
Pb      11.74581     15.34798     13.04540         0.080281      0.232246      0.320912
Pb      11.51075      7.70164      4.48758         0.605142      0.046411     -0.967682
Pb      11.87706      7.69601     17.37203        -0.686187      0.035275     -0.072095
Pb      11.57715      7.60812      8.53220        -0.069117     -0.269952      0.719981
Pb      11.59579      7.55324     13.16566         0.583194      0.416551     -0.437788
Pb      11.37676     11.55829      4.25074         0.974213     -0.350250      0.086363
Pb      11.73827     11.35343     17.42960         0.051943      0.332004     -0.027294
Pb      11.67311     11.49743      8.55645        -0.503270     -0.158242      0.749696
Pb      11.71929     11.67369     12.97304         0.256315     -1.153559      0.574227
Ti       1.96542      1.94079      2.36616         0.756201     -0.925894     -0.529907
Ti       2.13524      1.91152     15.42023         0.260135     -0.157757      0.587486
Ti       1.99049     13.49158      2.31172        -0.795831      0.606829      0.323178
Ti       2.23161     13.42243     15.38411        -0.470853     -0.198435      1.236754
Ti      13.44953      1.86147      2.24817        -0.348195      0.237173      1.002697
Ti      13.73558      1.86197     15.44043        -0.718510      0.052307     -0.021191
Ti      13.48031     13.48455      2.37956        -0.109930     -1.482657      0.727061
Ti      13.76367     13.33123     15.26722         0.246300      0.533601     -1.414959
Ti       2.06329      1.89811      6.64645        -0.373713     -0.254760     -0.321654
Ti       2.09930     13.43151      6.69925        -0.616264      0.365679      0.494843
Ti      13.48239      1.85571      6.74652        -0.351229     -0.461819      0.216988
Ti      13.53415     13.39406      6.61256         0.569017      0.771492      0.277633
Ti       2.04482      1.93682     10.90275         0.263494     -0.275838      0.067064
Ti       1.99670     13.46909     11.03321         0.498188     -0.236693      0.175990
Ti      13.52686      1.95838     11.01113         1.177635      0.240873     -0.600639
Ti      13.59556     13.45465     10.96938         0.619915     -0.419148      0.854341
Ti       1.90730      5.74632      2.22812         0.358664      0.090238     -0.745365
Ti       2.11871      5.72449     15.28672        -0.063792      0.176043      0.940496
Ti      13.41442      5.79327      2.23059         0.772645      0.342505      1.168564
Ti      13.71172      5.67340     15.46711         0.220528      0.950475      0.883260
Ti       2.04250      5.71316      6.63974        -0.332380      0.152043     -0.165868
Ti      13.52933      5.65244      6.58431        -0.270966      0.884788     -0.216285
Ti       2.01981      5.68867     10.96234         0.659365      0.908197     -0.339307
Ti      13.66081      5.75136     10.92466        -1.186072     -0.106188      1.848887
Ti       1.88215      9.55820      2.18296         0.477226      0.257710      1.645146
Ti       2.15491      9.58899     15.36098         0.375875      0.156951     -1.353452
Ti      13.46114      9.58289      2.26752        -0.495796      0.513865      3.129043
Ti      13.64294      9.63624     15.24272        -0.566378     -0.677188     -0.068470
Ti       2.03590      9.53864      6.66139         0.182882      0.205390      1.231334
Ti      13.44927      9.52535      6.64860         0.784492      0.069847     -0.706763
Ti       2.00969      9.51026     11.01699         0.171895      0.360721      2.388216
Ti      13.57052      9.61221     11.03771         0.226845      0.130435      1.253535
Ti       5.73068      1.87951      2.18854         0.495998      0.039660     -0.302931
Ti       5.97302      1.94358     15.41774         0.421596      0.046616      1.764783
Ti       5.78273     13.40012      2.18885         0.634149      0.098102      1.547812
Ti       6.03478     13.32639     15.40574        -1.585109      0.137397      0.880960
Ti       5.90420      1.76157      6.58967        -0.798183      1.052509     -0.065971
Ti       5.91344     13.41243      6.75977        -0.557470     -0.196919      1.580318
Ti       5.94066      1.88745     11.10240        -0.495352      0.106328      0.586876
Ti       5.83794     13.34123     11.07443         0.113680      0.345209      1.209231
Ti       5.83267      5.71967      2.22364        -0.587443      0.380287      0.083749
Ti       5.97275      5.74427     15.30384         0.341200     -0.065080     -0.472110
Ti       5.84476      5.75638      6.68780         1.258833     -0.082548     -0.508022
Ti       5.92830      5.60161     11.13009         0.450010      1.639129     -0.043259
Ti       5.65917      9.55909      2.32120         0.179146      0.001201     -1.430876
Ti       5.89159      9.54816     15.31971         0.665240     -0.035674      1.218835
Ti       5.93731      9.59233      6.77612        -0.784988      0.348263      0.590702
Ti       6.01166      9.54955     10.98033        -0.151801     -0.308333      0.352696
Ti       9.66651      1.83255      2.10806        -0.887631      0.397521      0.125274
Ti       9.84101      1.86472     15.47436        -0.150913     -0.342798      0.260106
Ti       9.60294     13.42682      2.22441         0.430277     -0.283794      0.867831
Ti       9.89179     13.24760     15.32857        -0.487957      0.774108      0.197388
Ti       9.63756      1.93268      6.52924         1.305630     -0.222961      0.576730
Ti       9.70165     13.39339      6.64726         0.459348      0.208235     -0.313003
Ti       9.81354      1.91043     11.09863        -0.373816     -0.269246      0.898979
Ti       9.70673     13.39705     11.11390         0.118416     -0.197605      1.151461
Ti       9.65326      5.80484      2.35557         0.241494     -0.278632     -0.100899
Ti       9.85126      5.79469     15.40193        -0.684059     -0.146059      1.843686
Ti       9.67506      5.70707      6.46577        -0.604616      0.326740      0.037130
Ti       9.71121      5.60403     11.09996         0.219868      0.736960      1.220094
Ti       9.66168      9.59499      2.28814         0.153985     -0.250144     -0.008602
Ti       9.75103      9.56183     15.42775        -0.285354     -0.632788     -0.709588
Ti       9.68230      9.52642      6.59156        -0.263165      0.574893      0.231018
Ti       9.86750      9.50336     11.08540         0.057009      0.091575      1.040751
O       2.05431      1.83192      0.55732        -0.406364      0.390005      1.069031
O       2.06832      2.04628     13.65598        -0.044763     -0.349691     -0.031780
O       1.99829     13.54755      0.53012        -0.373314     -0.434986      0.797846
O       2.19854     13.39200     13.62944         0.039051     -0.024127      0.145601
O      13.55361      1.75383      0.53361        -0.335019      0.222488     -0.874330
O      13.73728      1.85968     13.67336         0.114782      0.096508      0.453887
O      13.41272     13.53308      0.61219         0.004057     -0.124411     -0.248921
O      13.80190     13.38574     13.45646        -0.386591      0.104540      1.650948
O       2.10399      1.87182      4.86573        -0.233689      0.108507      0.569822
O       2.14222     13.45079      4.91827        -0.104674     -0.342791      0.292058
O      13.36111      1.75049      5.00590         0.330049      0.420948     -0.915278
O      13.71933     13.49618      4.86341        -0.881426     -0.307285      0.131659
O       2.11583      1.77916      9.09673        -0.198669      0.526145      1.198678
O       1.99322     13.56360      9.24229        -0.060144     -0.324224      0.310671
O      13.64518      2.08214      9.20592        -0.629595     -0.406695      0.835472
O      13.58933     13.49571      9.18283        -0.107225     -0.261611      0.707153
O       2.00472      5.77966      0.37496        -0.402821     -0.302734      2.640857
O       1.92670      5.70023     13.52447         0.511713     -0.406904      0.714483
O      13.50237      5.78545      0.48162        -0.161244      0.151484     -0.051186
O      13.65784      5.78421     13.71223         0.188730     -0.315784     -0.125909
O       2.10357      5.84013      4.82597        -0.224537     -0.172313      1.057697
O      13.37143      5.71378      4.81315         0.470184     -0.059400      0.787608
O       1.88722      5.74214      9.16462         0.457834      0.030176      1.041904
O      13.64369      5.67992      9.18219        -0.097241      0.077794     -0.193260
O       1.98731      9.61529      0.44275        -0.427256     -0.150464     -0.366459
O       2.20373      9.62385     13.55503         0.005123      0.075722      0.789205
O      13.42252      9.53645      0.55706         0.169295      0.041261     -1.614270
O      13.63868      9.44833     13.48339        -0.019465      0.617007      1.257725
O       2.14661      9.62073      4.91642        -0.253215     -0.291038     -0.267053
O      13.32162      9.49588      4.91013         0.578008      0.103205      0.193465
O       1.92409      9.62662      9.32048        -0.203198     -0.192804     -1.831619
O      13.59290      9.62377      9.27814         0.079664     -0.273768     -1.381455
O       5.64012      1.90801      0.41457         0.446940     -0.230174      0.550725
O       5.93499      2.00410     13.66106        -0.209176     -0.619017     -0.877573
O       5.96987     13.24247      0.47211        -1.004827      0.645968     -0.287710
O       5.78748     13.38402     13.66508         0.346373     -0.137123     -0.247742
O       5.87512      1.85216      4.80081        -0.050966     -0.240016      0.975915
O       5.79082     13.51189      5.06352         0.094906     -0.365724     -1.667990
O       5.81841      1.91904      9.36100         0.313906     -0.149062     -0.178496
O       5.98877     13.45710      9.37081         0.069832     -0.093271     -1.108647
O       5.82138      5.85723      0.46791        -0.125117     -0.368065      0.634294
O       6.15253      5.65566     13.50249        -0.751993      0.355179      1.430394
O       5.92165      5.61790      4.89633        -0.435229      0.395233      0.811395
O       6.14363      5.58957      9.36644        -0.740245      0.028409     -0.646794
O       5.63416      9.61700      0.54847         0.091155     -0.215654      1.002884
O       5.86336      9.55103     13.54101         0.190977      0.262894      0.119534
O       5.75015      9.72134      5.01277         0.207480     -0.457164      0.282351
O       6.03401      9.67200      9.24173         0.110373     -0.211001     -0.368658
O       9.67472      1.80334      0.32056        -0.263217      0.318489      1.250694
O       9.73801      1.95470     13.71386         0.357155     -0.189467     -0.182016
O       9.83928     13.36476      0.49673        -0.454594     -0.007121     -0.278103
O       9.74851     13.13295     13.55797         0.092222      0.604898      0.743684
O       9.74773      1.80127      4.75491        -0.409205      0.193529      0.989923
O       9.66422     13.54518      4.88706        -0.036174     -0.381596      0.458259
O       9.69277      2.00011      9.37579         0.363047     -0.215694     -0.510883
O       9.76844     13.54586      9.37678        -0.184292     -0.327698     -0.594155
O       9.55523      5.77974      0.59356         0.187761     -0.094022     -0.213314
O       9.72867      5.79402     13.68922         0.445092     -0.143835     -1.014044
O       9.75128      5.76387      4.65192        -0.420435     -0.265001      1.314834
O       9.72885      5.51921      9.37086        -0.118413      0.432052     -0.416366
O       9.77872      9.63377      0.53343        -0.420087     -0.154891      0.387283
O       9.63713      9.57165     13.65506         0.499782      0.059874      0.394628
O       9.64248      9.51414      4.81870        -0.078216      0.256979      0.532355
O       9.87773      9.36604      9.34873        -0.093710      0.206561     -0.593332
O       3.90382      2.02664      2.65787        -0.513427     -0.123859      0.194730
O       4.09248      1.96374     15.81296        -0.481741     -0.037916     -0.327581
O       3.87537     13.38227      2.63773         0.688269      0.218901     -0.044893
O       4.09435     13.32331     15.96992        -0.435684      0.103677     -0.541015
O       0.04097      1.85058      2.76833        -0.292841      0.098264     -0.206313
O       0.28533      1.92007     15.92521        -0.788862     -0.216568     -0.390588
O      15.37908     13.43278      2.71636         0.938490      0.051875     -0.026516
O      15.56714     13.38838     15.94437         0.790823     -0.171719     -0.425163
O       3.99164      1.84943      7.02909         0.040067      0.107986      0.018739
O       3.98420     13.47925      7.26286        -0.329575     -0.292244     -0.422458
O       0.11545      1.91411      7.02500        -0.076376     -0.377770     -0.129333
O      15.43633     13.40834      6.97953         0.402272     -0.239612      0.359217
O       3.95044      1.89444     11.45121         0.542245     -0.026705     -0.077223
O       3.94088     13.41842     11.38555         0.542589      0.184608      0.007718
O      15.49815      1.93810     11.35278         0.640406     -0.119595      0.000282
O      15.50377     13.39501     11.48664         0.172188      0.785405     -0.826339
O       3.90504      5.65708      2.71624        -0.534729      0.271866     -0.499429
O       4.08471      5.69972     15.68812        -0.274270      0.240245     -0.396347
O      15.36286      5.75069      2.79756         0.300756      0.241106     -0.525939
O       0.27657      5.68147     15.95078        -0.735088      0.180450     -0.740004
O       3.99280      5.72425      7.05567        -0.551846      0.342933      0.126856
O      15.44203      5.79903      6.95160        -0.177241     -0.150847     -0.203761
O       4.02951      5.66604     11.46514        -0.827640      0.100629     -0.376188
O       0.18375      5.74653     11.40881        -1.010349     -0.212124     -0.178934
O       3.78726      9.52936      2.75226        -0.243849      0.309246     -0.110953
O       4.04944      9.47891     15.74462        -0.268403      0.197469     -0.202309
O      15.39143      9.54767      2.70581         0.362573      0.285572     -0.144466
O       0.23259      9.50092     15.66532        -0.568634      0.564245      0.302642
O       3.93219      9.58149      7.31052         0.322756     -0.059803     -0.545273
O       0.11473      9.57115      6.90577        -0.484285      0.173849      0.559767
O       4.02419      9.61311     11.29665        -0.288551     -0.264640      0.005783
O      15.49643      9.59100     11.53845         0.492675     -0.352586     -0.576774
O       7.71520      1.82013      2.69340         0.306790      0.610686     -0.599657
O       7.88565      1.85825     15.75219        -0.200409      0.202587      0.205885
O       7.72345     13.18901      2.59999        -0.569308      1.018029     -0.082128
O       7.89124     13.32828     15.74457         0.683024     -0.123279     -0.135156
O       7.79824      1.87398      7.02062        -0.215349     -0.104631     -0.297919
O       7.89383     13.44931      7.20528        -0.987056     -0.192226     -0.111582
O       7.85661      1.90921     11.50770        -0.477845     -0.756289     -0.330754
O       7.84554     13.37738     11.56658        -0.137574      0.076707     -0.395017
O       7.71123      5.79432      2.70946        -0.456946     -0.107521     -0.187103
O       7.92084      5.74275     15.91217         0.237995      0.144890     -0.435124
O       7.80897      5.74299      7.18102        -0.123382     -0.133659     -0.664176
O       7.86498      5.78928     11.47160         0.981952     -0.117560     -0.059891
O       7.62404      9.67877      2.71510         0.288006     -0.475218     -0.217796
O       7.85833      9.70260     15.84632        -0.364750     -0.650720     -0.348305
O       7.88983      9.75984      7.16142        -0.776755     -0.718919     -0.285992
O       7.93815      9.50474     11.42140        -0.765282      0.277817     -0.164537
O      11.49428      1.93722      2.55529         0.652940     -0.305901      0.110109
O      11.79132      1.91745     15.79126         0.538783     -0.289760     -0.069430
O      11.56943     13.43280      2.85006        -0.690502      0.150606     -0.449114
O      11.80925     13.37616     15.55299        -0.753614     -0.121771      0.272927
O      11.56808      1.92615      7.15024        -0.716181      0.141934     -0.283871
O      11.61171     13.46380      7.12254        -0.165660      0.080853     -0.212800
O      11.73717      1.99524     11.60137        -0.751290     -0.369660     -0.505135
O      11.70120     13.46029     11.57667        -0.060435      0.162127     -1.056720
O      11.60204      5.90771      2.68921        -0.677209     -0.899430     -0.363457
O      11.78401      5.80791     15.89458        -0.422982     -0.155287     -0.463886
O      11.53553      5.74380      6.99648         0.280275     -0.257589     -0.120208
O      11.74006      5.66715     11.49780        -0.195242      0.062247     -0.088082
O      11.53716      9.52239      2.74131        -0.038806      0.160615     -0.216180
O      11.70029      9.63286     15.81797         1.248185     -0.651046     -0.533593
O      11.59452      9.44510      7.06961        -0.764900      0.431704      0.087425
O      11.80769      9.70641     11.60409        -1.685713     -0.671513     -0.525795
O       1.77898      3.88449      2.74672         0.847010     -0.525466     -0.567822
O       2.12105      3.81757     15.92253         0.300443     -0.111744     -0.600222
O       2.07848      0.00493      2.84909        -0.278980     -0.002359     -0.578617
O       2.26686     15.32439     15.73368        -0.174915      0.150265     -0.172562
O      13.48725      3.78553      2.65083        -0.208898      0.217539     -0.078018
O      13.61264      3.83508     15.87719         0.522470     -0.810355     -0.246881
O      13.45135     15.35383      2.80049         0.054497      0.727277     -0.205538
O      13.70071     15.22214     15.78441         0.114356      1.200309     -0.187729
O       1.96751      3.85160      7.00364         0.612000     -0.367840     -0.194827
O       2.04905     15.32214      7.12334        -0.111034      0.036213     -0.351738
O      13.50737      3.80264      6.97483         0.090566      0.550877      0.187910
O      13.44347     15.33254      7.06214         0.508640     -0.360950      0.286910
O       2.06573      3.79558     11.42215        -0.043931     -0.132877     -0.365004
O       2.07779      0.01110     11.45471        -0.023829      0.524268     -0.296548
O      13.62818      3.82687     11.61224         0.130893      0.349117     -0.787919
O      13.59005      0.04372     11.45317         0.039933     -0.106932     -0.422244
O       1.93196      7.65954      2.57686         0.165488     -0.237642      0.221314
O       2.12163      7.60378     15.71523        -0.067576      0.530394      0.024747
O      13.48588      7.66796      2.80620         0.334642      0.119779     -0.527178
O      13.69022      7.69238     15.76766         0.091140      0.299106      0.098723
O       2.02043      7.66050      7.17888         0.249031     -0.028382     -0.441642
O      13.44810      7.62595      7.04892         0.616991     -0.211320      0.107630
O       2.06478      7.60386     11.43448         0.222256      0.491456     -0.685235
O      13.56689      7.68459     11.41410         0.315570     -1.330130     -0.406756
O       1.96165     11.52142      2.73933        -0.075908     -0.286022     -0.228248
O       2.08667     11.44908     15.85390         0.237067      0.352018     -0.181683
O      13.41589     11.50258      2.65330         0.255700     -0.311944      0.109332
O      13.67446     11.49329     15.76162         0.350862     -0.760577      0.009866
O       2.07331     11.47726      7.06300        -0.099842      0.398273      0.069029
O      13.36078     11.45871      7.02743         0.957357      0.241419     -0.182949
O       2.02958     11.52951     11.42136         0.556625     -0.104685     -0.448012
O      13.66691     11.51149     11.30558        -0.104553      1.143476     -0.021470
O       5.86059      3.76260      2.54143         0.261153      1.166072      0.452512
O       6.03901      3.91076     15.81496        -0.069257     -1.011876     -0.124211
O       5.82438     15.33645      2.65565        -0.212401     -1.009131     -0.169754
O       5.92328     15.28001     15.88991         0.186753     -0.021896     -0.811996
O       5.82219      3.79483      7.04989         0.657127     -0.432882     -0.098075
O       5.87354     15.31668      7.14343         0.481388      0.536532     -0.104166
O       5.95922      3.81931     11.50779        -0.051227     -2.338256      0.024178
O       5.96765     15.27193     11.64060        -0.439253      0.894470     -0.719212
O       5.72047      7.64413      2.70198         0.312273      0.066875      0.103950
O       6.06407      7.67320     15.77684        -0.187004     -0.084655     -0.377485
O       5.90987      7.69267      7.22074         0.108411     -0.026964     -0.438860
O       5.97019      7.60635     11.36300        -0.236362      1.008083     -0.038975
O       5.67943     11.48567      2.65658        -0.032680      0.405378      0.458802
O       5.88929     11.42464     15.99055         0.141872      0.390141     -1.061038
O       5.87018     11.54214      7.19254         0.198012     -0.200936      0.089711
O       5.89450     11.46062     11.45375         0.424055      0.191849     -0.064715
O       9.58244      3.84936      2.68715         0.384162     -0.454321     -0.492531
O       9.88433      3.86679     15.88984        -0.094212      0.006636     -0.193882
O       9.55344     15.31060      2.62508         0.364671     -0.016428     -0.254948
O       9.79703     15.28804     15.73631         0.285239     -0.971774     -0.191850
O       9.65507      3.87483      6.95606         0.145751     -1.236484     -0.337753
O       9.72519      0.01904      7.18292        -0.117679      0.166542     -0.581180
O       9.73785      3.74467     11.59589         0.309825      0.822776     -0.134911
O       9.77595     15.35650     11.53327         0.070656     -0.295311     -0.001569
O       9.56860      7.68955      2.72677        -0.059300      0.522249     -0.195453
O       9.71753      7.67777     15.91175         0.654699     -0.173993     -0.456741
O       9.63344      7.60566      6.95154         0.148774      0.507092      0.148712
O       9.90338      7.66106     11.68624        -0.465916     -0.574290     -1.159684
O       9.63086     11.46700      2.71549         0.342550      0.455364      0.045855
O       9.82642     11.38346     15.90838         0.238242      2.234771     -0.298243
O       9.83188     11.50330      7.02769        -0.139229     -0.118398     -0.104501
O       9.77512     11.44373     11.44533         0.047702      0.729124     -0.313674
