  # total energy = -7879.95618970 
CRSYTAL
PRIMVEC
    15.3600000000000000    0.0000000000000000    0.0000000000000000
     0.0000000000000000   15.3600000000000000    0.0000000000000000
     0.2400000000000000    0.0000000000000000    17.440000000000000
PRESSURE
0.35262 0.520633 -5.003 -0.140503 -0.921834 0.060867
PRIMCOORD
320 1
Pb       3.84552      3.82065      4.31426        -0.141980     -0.876283      0.156233
Pb       3.98636      3.81928     17.38852         0.712450     -0.182984      0.208485
Pb       3.81738      0.03368      4.23198         0.010605     -0.310060      0.426882
Pb       4.22384     15.28779     17.39052        -0.081765      0.135049      0.047288
Pb      15.40677      3.91440      4.36995         0.392240     -0.632047     -0.297898
Pb      15.41764      3.82580     17.38487         0.573475     -0.069463      0.225641
Pb      15.40710     15.17333      4.27711        -0.065488      0.346739      0.020783
Pb       0.39399      0.10663     17.33922        -0.678680     -0.711337      0.366727
Pb       3.79440      3.80442      8.74473         0.140300     -0.044807     -0.166715
Pb       3.97355      0.03882      8.63813        -0.457735      0.206495      0.077139
Pb      15.39355      3.81663      8.77068        -0.259620      0.230650     -0.319001
Pb       0.22170     15.34370      8.67396        -0.369211      0.182193     -0.177738
Pb       4.02879      3.69730     13.04605         0.002402     -0.465812     -0.390791
Pb       3.95671     15.28637     12.90083         0.328561      0.773502      0.130402
Pb      15.46614      3.66418     13.13381        -0.162491      0.414798     -0.220182
Pb      15.47979     15.18882     12.97601        -0.250373      0.446106      0.407747
Pb       3.92754      7.66528      4.30586        -0.076372      0.463277     -0.028102
Pb       4.01106      7.79762      0.06016         0.304793     -0.346456     -0.377734
Pb      15.38248      7.74658      4.31584         0.214496     -0.209602     -0.039797
Pb       0.02181      7.58266      0.04165         0.414596     -0.102682     -0.387148
Pb       3.91602      7.76830      8.74433         0.181448     -0.291063     -0.360097
Pb       0.20084      7.68781      8.72481         0.081519     -0.080621     -0.005789
Pb       3.94713      7.65278     13.16874         0.057831      0.453092     -0.317029
Pb       0.24833      7.73685     13.09768        -0.191471      0.169615     -0.142501
Pb       3.88278     11.53315      4.30917        -0.159647     -0.208081     -0.218461
Pb       4.03479     11.45863     17.35302         0.498546     -0.248437      0.049136
Pb      15.28319     11.39085      4.26268         0.275695      0.496241      0.013768
Pb      15.56217     11.45838     17.42262         0.275643      0.307348     -0.155516
Pb       3.88762     11.48104      8.60658         0.141897      0.436011      0.501943
Pb       0.19580     11.58921      8.68837        -0.361948     -0.087881     -0.432683
Pb       3.99444     11.48358     13.15617        -0.381058      0.118202     -0.069096
Pb      15.42531     11.41279     13.05201        -0.172642      0.362800      0.204573
Pb       7.70518      3.81528      4.42990         0.011476     -0.498551     -0.137772
Pb       7.78627      3.79364     17.42829        -0.007665     -0.219976     -0.343627
Pb       7.60115     15.27003      4.42698         0.531271      0.500700     -0.370409
Pb       7.63550     15.33704      0.01222         0.408455      0.308277      0.038917
Pb       7.81869      3.75172      8.72713         0.047752      0.285756     -0.318410
Pb       7.75062     15.34896      8.63270         0.217712      0.181226      0.253124
Pb       7.83990      3.96726     12.86434        -0.631231     -0.510335      0.880273
Pb       7.81680      0.03682     12.99752        -0.446681     -0.081471     -0.442593
Pb       7.76921      7.54561      4.29097        -0.572493      0.331172      0.868698
Pb       7.73130      7.73762      0.00176        -0.651146      0.059135     -0.551109
Pb       7.79364      7.70229      8.72075        -0.267162     -0.512064     -0.401035
Pb       7.84971      7.72287     13.10103        -0.084623     -0.043604     -0.292748
Pb       7.88817     11.46037      4.36912        -0.221885      0.209237      0.160559
Pb       7.59598     11.64680      0.02357        -0.118701     -0.641910     -0.032009
Pb       7.72615     11.45798      8.61160        -0.314099     -0.058923      0.308851
Pb       7.79453     11.62663     13.03902         0.319691     -0.275176     -0.641953
Pb      11.60053      3.92484      4.43104        -0.193052     -0.519441     -0.136686
Pb      11.70024      3.93451     17.41582        -0.715055     -0.612127     -0.417305
Pb      11.54615      0.07069      4.44925         0.042680     -0.286031     -0.395293
Pb      11.54104      0.14427      0.03713        -0.705191     -0.000909     -0.259803
Pb      11.74303      3.83768      8.75213        -0.218712      0.171817     -0.321500
Pb      11.61712      0.02775      8.65712         0.156820     -0.072971     -0.205912
Pb      11.61168      3.76442     12.98194         0.190099      0.063009      0.494027
Pb      11.57636     15.23282     13.02415         0.507550      0.279904      0.358788
Pb      11.52113      7.58346      4.34107         0.078507     -0.145349      0.283980
Pb      11.63007      7.61003     17.34035        -0.107461      0.246401     -0.160077
Pb      11.61071      7.65241      8.70581        -0.346452     -0.525606      0.074679
Pb      11.84160      7.58306     13.03065        -0.757344      0.513636      0.293992
Pb      11.67219     11.40495      4.23735        -0.337851      0.860771      0.348791
Pb      11.68054     11.62271     17.43723        -0.286051      0.183669     -0.208458
Pb      11.55796     11.55961      8.75171         0.657447      0.146489     -0.359263
Pb      11.60823     11.44997     13.05968         0.086751     -0.071616     -0.360339
Ti       1.94571      1.78827      2.21121        -0.214678      1.130081      1.405473
Ti       2.17004      1.86216     15.44297         0.867533      0.038229     -2.166593
Ti       1.99271     13.35867      2.12778        -1.294850      0.059098      0.193701
Ti       2.11961     13.45283     15.43068         0.511662     -1.679535     -0.877691
Ti      13.51522      1.87234      2.35453         0.123631     -0.188853      0.227166
Ti      13.64736      1.88474     15.30912        -0.985406      0.267162     -1.685065
Ti      13.44939     13.47148      2.16799         0.073391     -0.418954      0.551747
Ti      13.61604     13.50211     15.50519         0.079653     -0.862106     -1.608224
Ti       1.92861      1.99900      6.61877        -0.226656     -1.249089     -1.386438
Ti       2.02889     13.53151      6.67287        -0.624714     -0.222426     -0.787232
Ti      13.47948      1.92918      6.61534         0.437320     -0.160241      0.747618
Ti      13.49103     13.48195      6.67519        -0.044027     -0.543011      0.348050
Ti       1.96778      1.95521     10.98774         1.297406     -0.185288     -1.025254
Ti       2.06951     13.46425     11.06099         0.447268     -0.215743     -2.571746
Ti      13.50868      1.89728     11.02892         0.235607     -0.035323     -1.415803
Ti      13.64953     13.37878     10.95583        -1.104517      0.403135     -1.258712
Ti       1.97665      5.74630      2.34515        -0.743632     -0.513853     -1.196937
Ti       2.17790      5.69534     15.37524        -0.320305      0.624951      0.560727
Ti      13.46515      5.73811      2.29930         0.481449     -0.719066      0.043519
Ti      13.65462      5.75552     15.44761        -0.739227     -0.300880     -2.556335
Ti       1.96551      5.73106      6.69368         0.954532      0.254456      2.324775
Ti      13.57232      5.86089      6.69329        -0.443713     -1.492389     -0.614521
Ti       2.04332      5.75086     11.17307        -0.995499     -0.221813     -1.612280
Ti      13.63118      5.73068     11.19300         0.283955     -0.942624     -1.723417
Ti       1.95261      9.57975      2.26495         0.992130      0.105465     -0.965908
Ti       2.10430      9.52936     15.55111         0.337796      0.708331     -1.742209
Ti      13.39179      9.47185      2.14760         0.347990      1.116208      0.345116
Ti      13.62511      9.61134     15.49279        -0.003388      0.313174     -0.673507
Ti       2.00822      9.63001      6.65808        -1.258634     -0.299637     -0.950501
Ti      13.45134      9.59017      6.79858         1.080550      0.987417      0.632307
Ti       2.03047      9.63970     11.00444         0.194146     -0.435468     -1.476309
Ti      13.59317      9.54771     10.93638        -0.925962      0.617690      0.558034
Ti       5.82503      1.86092      2.38855         0.418750      0.383600     -0.433773
Ti       5.93675      1.73502     15.30235         0.253967      1.548644     -0.900974
Ti       5.79502     13.40815      2.35046         0.349128     -0.302736     -1.256532
Ti       5.99151     13.31817     15.28651        -1.054936     -0.164893     -0.384284
Ti       5.83332      1.89546      6.64520        -0.168337      0.253673     -0.761646
Ti       5.82560     13.40927      6.65778        -0.440989      0.392090     -0.692463
Ti       5.95553      1.96665     10.92366        -1.633232     -1.165077     -0.751159
Ti       5.86344     13.40452     10.95788         0.554520      0.391791      0.343273
Ti       5.80111      5.74006      2.46203        -0.099643     -0.252061     -1.615007
Ti       5.87539      5.67179     15.38399         1.021410      0.537775     -1.506771
Ti       5.77823      5.68378      6.61120         0.417834      0.493382     -0.361171
Ti       5.77492      5.81261     10.97400         0.820531     -0.295067     -0.236711
Ti       5.86493      9.67756      2.37947        -0.771993     -0.707255     -1.314951
Ti       5.97466      9.58865     15.25012         0.383717     -0.807350      0.795086
Ti       5.75952      9.61245      6.53618         1.122049     -0.743775     -1.227496
Ti       5.81675      9.60208     11.10767         0.147359     -0.063511     -1.258357
Ti       9.66175      1.86593      2.47699        -0.463010     -0.028664     -0.930460
Ti       9.75468      1.88552     15.40256         0.099917      0.869338     -1.054573
Ti       9.58169     13.39404      2.33249         0.840638      0.475245     -1.550849
Ti       9.75158     13.41780     15.40920         0.949283      0.384697      0.753504
Ti       9.65192      1.88248      6.65706         0.289337     -0.138249     -1.491183
Ti       9.67111     13.38348      6.70549         1.319762      0.022136     -1.446369
Ti       9.71346      1.90615     11.04914         0.128497      0.067524     -1.767269
Ti       9.80642     13.44807     10.97921        -0.919693     -0.590857     -1.117204
Ti       9.60068      5.64906      2.38346        -0.217507     -1.039136     -0.290896
Ti       9.70603      5.72132     15.29738         0.447751     -0.276638     -0.038034
Ti       9.63265      5.68772      6.75861         0.215457     -0.083453     -0.522653
Ti       9.74847      5.79056     11.07192        -0.800404      0.356483     -2.487236
Ti       9.62174      9.50839      2.43516        -0.358114      0.541862     -1.895866
Ti       9.79763      9.60674     15.38437        -0.709921     -0.131994     -1.432882
Ti       9.63894      9.55425      6.71080         0.251083     -0.262073     -1.247984
Ti       9.67643      9.58957     11.02965         0.502422     -0.087403      0.660466
O       1.92523      1.83837      0.43848         0.048313      0.070327     -0.655937
O       2.33143      1.76417     13.59112        -0.540172      0.538997      1.508438
O       1.76654     13.32085      0.34086         0.995848      0.264774      0.624204
O       2.17638     13.36899     13.60098        -0.120267      0.201100     -0.127056
O      13.45121      1.84749      0.56851         0.102408      0.423555     -0.402575
O      13.61139      1.94534     13.44566         0.040055     -0.308316      1.677818
O      13.43150     13.31336      0.39374         0.113945      0.628183     -0.493179
O      13.69104     13.48410     13.66502        -0.071601     -0.148868      0.634820
O       1.86674      1.99508      4.78222         0.510509     -0.365571      1.269754
O       1.85865     13.50978      4.87115         0.441166     -0.055513      0.725351
O      13.39148      1.76736      4.86697         0.226438      0.401197     -0.604246
O      13.53789     13.48028      4.85601         0.168762     -0.306879      0.914000
O       2.01955      1.96550      9.13091        -0.238569      0.028887      1.556618
O       2.01042     13.59786      9.17608         0.173484     -0.335871      1.362102
O      13.51656      2.03366      9.12231        -0.198851     -0.373413      2.160475
O      13.51458     13.40605      9.12564         0.248202      0.021934      2.087294
O       1.91712      5.90331      0.55648        -0.012894     -0.713442      0.767504
O       2.19642      5.65476     13.59355        -0.096113      0.528833      0.346144
O      13.47292      5.69225      0.47700        -0.127083     -0.276976      0.218501
O      13.51620      5.71655     13.48193         0.238799      0.062048      1.918478
O       1.89410      5.66693      5.02225         0.035296      0.104650     -3.190984
O      13.51895      5.87235      4.82268        -0.061640      0.125216      1.422096
O       1.88704      5.62560      9.38728         0.315278      0.179264     -0.051113
O      13.61038      5.72864      9.32610         0.103028     -0.055247      1.184556
O       1.91127      9.60631      0.40584         0.272317     -0.443345      1.186777
O       2.22598      9.49487     13.64355        -0.922823      0.217016      1.007365
O      13.26942      9.51875      0.39703         0.354202     -0.048948      0.345958
O      13.69314      9.60002     13.66966        -0.045960      0.061350      0.872030
O       1.98499      9.51625      4.81943        -0.111519      0.284480      0.850471
O      13.56876      9.65260      5.04875         0.017456     -0.458919     -1.356912
O       2.03976      9.52950      9.12983         0.386288      0.205748      1.137780
O      13.57814      9.52217      9.18466         0.031564      0.011871      0.443144
O       5.85488      1.76898      0.56766        -0.088588      0.041027      0.679495
O       5.96316      1.84826     13.47075        -0.246035     -0.195107      1.256143
O       5.85875     13.36912      0.49604        -0.090590      0.359495      0.778864
O       5.89093     13.29913     13.49264         0.109446      0.122182      0.478583
O       5.96924      1.75671      4.79208        -0.580097      0.048032      1.497126
O       5.70104     13.47776      4.86450         0.551124     -0.260235      0.531015
O       5.91629      1.95927      9.07972         0.149004     -0.040083      0.999551
O       5.77306     13.27100      9.20252         0.374165      0.269011     -0.440113
O       5.78584      5.83857      0.61637        -0.033137     -0.454650      1.195939
O       5.86199      5.72754     13.52827        -0.349399     -0.064624      1.369607
O       5.80304      5.76617      4.75549        -0.142488     -0.078595      1.149959
O       5.83350      5.73972      9.22009        -0.020514      0.102710     -0.320537
O       5.76197      9.68360      0.48749         0.538192     -0.768089      1.255124
O       5.87028      9.50207     13.44219        -0.036155      0.181525      0.502046
O       5.84010      9.70402      4.62538        -0.499085     -0.301304      2.705046
O       5.70209      9.67998      9.22356         0.302964     -0.140962      1.573730
O       9.58438      1.91278      0.60868         0.246187     -0.090414      0.744009
O       9.75020      1.85250     13.60027        -0.236960     -0.164586      0.387066
O       9.55641     13.47417      0.40679        -0.110801     -0.306566      1.666127
O       9.93053     13.39732     13.66292        -0.562736      0.172837     -0.792345
O       9.65600      1.77932      4.76933         0.112699      0.233414      1.597767
O       9.70760     13.19109      4.87474         0.019094      0.572135      1.141712
O       9.76087      1.97349      9.19590        -0.374037     -0.458044      1.537351
O       9.86409     13.53080      9.13778        -0.420850     -0.482493      1.648593
O       9.51884      5.56531      0.60241         0.364517      0.147607     -0.007589
O       9.81400      5.81920     13.52880        -0.216229     -0.199215     -0.535885
O       9.71204      5.61107      4.85601         0.080464      0.524370      1.232709
O       9.70231      5.79887      9.08453        -0.219227     -0.077214      2.037790
O       9.47745      9.42962      0.58327         0.623223      0.215830      1.225056
O       9.78576      9.56291     13.55310         0.185771      0.180943      1.493580
O       9.54603      9.57730      4.85349         0.639499     -0.145322      1.010071
O       9.60116      9.47844      9.25960        -0.031875      0.289847     -0.345441
O       3.91250      1.82563      2.70703        -0.550556      0.393286     -0.199970
O       4.14666      1.87539     15.89748        -0.752731     -0.067016      0.072196
O       3.95256     13.34123      2.71378        -1.491701     -0.185247     -0.389858
O       4.14245     13.07530     15.71514        -0.417707      1.153433     -0.010874
O       0.05805      1.80162      2.61183         0.204165     -0.327676     -0.073167
O       0.27226      1.86355     15.64734         0.460861     -0.238981      0.378211
O       0.08432     13.56412      2.52051         0.044911     -0.629740      0.177315
O       0.28696     13.48893     15.66853        -0.558025      0.132644      0.425297
O       3.92435      1.91626      6.95197         0.493323     -0.105305      0.056769
O       3.94073     13.56781      6.98276         0.021156     -0.267005      0.223267
O      15.38375      1.82579      6.90022         0.247699      0.324286      0.377483
O       0.11300     13.47969      7.19099        -0.530674     -0.088385     -0.696715
O       4.01468      1.84951     11.23986        -0.116523     -0.192476      0.325026
O       3.95665     13.46979     11.35258         0.029619     -0.368701      0.131740
O      15.44771      2.04616     11.41302         0.567499     -0.667818     -0.380504
O       0.20184     13.42973     11.41115        -1.083492     -0.025935      0.127401
O       3.83593      5.57705      2.83836         0.339696      0.987487     -0.487409
O       4.01940      5.74722     15.96761         0.097179      0.138477     -0.707153
O      15.38182      5.85137      2.73226         0.266334      0.060634     -0.088775
O      15.56550      5.71684     15.87723         0.863903      0.220896     -0.400828
O       3.94144      5.60795      7.04332        -0.016203      0.370209      0.032859
O       0.17256      5.79871      7.13667        -1.783199     -0.298436     -0.053394
O       3.87156      5.87939     11.24646         1.566384     -0.131206      0.738863
O      15.48999      5.50453     11.56571        -0.152889      0.908018      0.103832
O       3.92921      9.66408      2.63546        -1.073819     -0.383918      0.161688
O       4.12705      9.60982     15.70420        -0.471735     -0.121954      0.385370
O       0.08528      9.51089      2.54550        -1.392234     -0.404573      0.302333
O      15.55269      9.48106     15.90094        -0.359699      0.168595     -0.277128
O       3.93701      9.74667      6.98484        -0.131041     -0.835182     -0.192320
O       0.11690      9.67236      7.11987         0.385243     -0.274328     -0.208690
O       3.87171      9.41773     11.50776         1.036573      0.798592     -0.488291
O      15.48007      9.65123     11.45970        -0.041339     -0.470124      0.019993
O       7.74649      1.83957      2.82375        -0.345408     -0.327643     -0.414799
O       7.75793      1.86492     15.82700         1.079597     -0.368851     -0.151840
O       7.69370     13.32981      2.67124         0.451086      0.029022      0.200893
O       7.86481     13.37581     15.62305         0.303038      0.682320      0.408458
O       7.78623      1.88294      7.11949        -0.195860     -0.137871     -0.163204
O       7.82545     13.30989      7.01154        -0.850217      0.133679      0.284652
O       7.82606      1.85822     11.38999         0.154772      0.150702     -0.009614
O       7.81715     13.36266     11.31366         0.796107     -0.088994      0.186678
O       7.71136      5.62437      2.77913        -0.383970      0.109805     -0.029294
O       7.88335      5.79656     15.55481        -0.756169     -0.477421      0.656904
O       7.75340      5.73263      6.97303        -0.051772      0.256765      0.162790
O       7.75339      5.69021     11.34762         0.597331      0.503788      0.081134
O       7.80228      9.69394      2.79152        -0.353140     -0.660553     -0.363205
O       7.86521      9.45214     15.62991         0.759693      0.041324      0.185560
O       7.68386      9.60171      7.00919         0.521559      0.382327      0.180846
O       7.80973      9.69566     11.52474        -0.337957     -0.772621     -0.482081
O      11.61503      1.94023      2.77909        -0.299487     -0.243845     -0.189481
O      11.75410      1.91182     15.69475         0.744092      0.493382      0.421040
O      11.61485     13.33029      2.49179        -0.563396      0.235473      0.230289
O      11.68790     13.33493     15.71731         1.074383      0.474099      0.542876
O      11.52625      2.03272      6.98991         0.801587     -0.659732      0.102017
O      11.59910     13.45799      7.11625         0.081123     -0.157558     -0.278821
O      11.58152      1.88653     11.44796         0.801061      0.015878     -0.252050
O      11.68118     13.40025     11.45696         0.168552     -0.048025     -0.298946
O      11.56740      5.67825      2.69001        -0.173209      0.011302     -0.002476
O      11.67605      5.61227     15.76561         1.164557      0.320996      0.387837
O      11.63080      5.76027      7.09595         0.462549      0.101795     -0.396616
O      11.57019      5.64281     11.32840         1.099222      0.306358      0.406955
O      11.54616      9.43686      2.77070         0.168959      0.482731     -0.256850
O      11.69768      9.60764     15.83405         0.279109     -0.103516     -0.162669
O      11.62229      9.46116      7.08480        -0.941066     -0.145453     -0.040301
O      11.64337      9.59058     11.39928         1.106830      0.012947     -0.156091
O       1.87995      3.71068      2.70874         0.265719      1.150426     -0.355020
O       2.31390      3.77755     15.68843        -0.701255      0.309961      0.272648
O       2.10937     15.25224      2.45862        -0.104245      0.168493      0.311018
O       2.40304     15.28543     15.73401        -0.478643      0.534243      0.462819
O      13.64389      3.85644      2.77683        -0.660900     -0.103057     -0.539390
O      13.87734      3.78897     15.63225        -0.829884     -0.046664      0.587498
O      13.46926     15.30736      2.67714        -0.323792      0.356778     -0.174734
O      13.71480      0.03561     15.72314        -0.234481     -0.279967      0.507895
O       1.97988      3.78572      7.10058        -0.126482      0.767310      0.105304
O       1.97319      0.08238      7.05770         0.336093     -0.593717      0.003503
O      13.58373      3.84323      7.03589        -0.062013      0.677519     -0.277517
O      13.40617     15.35119      7.05365         0.215658      0.135946     -0.150731
O       2.20017      3.78507     11.47430        -0.232242     -0.194389      0.137895
O       2.02817      0.03424     11.31997        -0.210160     -0.033029      0.464204
O      13.55043      3.78471     11.41218        -0.589026     -0.056499      0.118567
O      13.55840     15.32749     11.29641         0.367211      0.063428      0.247227
O       2.08225      7.62423      2.70288        -0.117963      0.511352      0.174245
O       2.15599      7.67509     15.75945        -0.033302     -1.290603      0.060096
O      13.35321      7.66510      2.59856         0.674853     -0.270464      0.195986
O      13.63073      7.58612     15.69052        -0.262641      0.511918      0.365323
O       2.03695      7.66332      7.06416         0.473413      0.497545     -0.013186
O      13.62253      7.64218      7.16656        -0.080267      0.240452     -0.253873
O       1.92348      7.73539     11.31597        -0.454413     -1.259587      0.714826
O      13.60230      7.65694     11.46699         0.350467      0.048714     -0.203612
O       1.83827     11.48553      2.59229         0.565217     -0.019873      0.170411
O       2.15595     11.44734     15.78340        -0.689184      0.036495      0.071839
O      13.50483     11.49568      2.69150         0.255313     -1.045850     -0.452861
O      13.74848     11.53476     15.82124        -0.218964     -0.653344     -0.175018
O       2.04328     11.57012      6.94690        -0.027968     -0.058763      0.292118
O      13.41148     11.50224      7.17052         0.452087      0.247228     -0.371922
O       2.01424     11.51635     11.05396         0.384348      0.175373      1.056795
O      13.64604     11.51788     11.34854        -0.140539     -0.255344      0.183840
O       5.78535      3.75013      2.74396         0.193606      0.538535     -0.089509
O       5.90183      3.76326     15.74942         0.151057      0.810204      0.214217
O       5.77915     15.27716      2.74292         0.309195      0.088290     -0.149190
O       5.83548     15.22104     15.65013         0.426218      0.044682      0.132300
O       5.95351      3.80070      6.83279        -0.152261      0.051987      0.251406
O       5.94653     15.35700      7.14973        -0.091027     -0.695222     -0.493646
O       5.84351      3.77408     11.27697         0.129701      1.159306      0.447107
O       6.01929     15.31338     11.29629        -0.350791     -0.149427      0.009409
O       5.85232      7.69957      2.77421        -0.180726     -0.826882     -0.312339
O       5.98058      7.60723     15.77276        -0.487150      0.347656     -0.075661
O       5.81131      7.70054      7.01834        -0.403519      0.264752     -0.384255
O       5.94965      7.66227     11.32399        -0.043958      0.547926      0.173556
O       5.84487     11.46267      2.57037         0.013647      1.633566      0.659031
O       6.11235     11.42308     15.75791         0.062050      0.053998     -0.423746
O       5.81135     11.54432      6.99154         0.115519     -0.434440     -0.002078
O       5.89403     11.49108     11.46662        -0.586233     -0.245675     -0.060786
O       9.57439      3.70719      2.83654         0.547222      1.262915     -0.165628
O       9.77955      3.81237     15.63400        -0.223992     -0.062623      0.793813
O       9.62686     15.21559      2.74718         0.331159      0.567204      0.037737
O       9.93716      0.11245     15.86201        -0.761559     -1.906613     -0.080835
O       9.64565      3.73835      7.05228        -0.176583      1.593849     -0.157007
O       9.67585     15.31431      6.94988         0.017867     -0.087055      0.272002
O       9.64626      3.80457     11.38035         0.432394      0.145501      0.026857
O       9.74058     15.31688     11.47335        -0.070728     -0.233676     -0.231904
O       9.48188      7.52528      2.70833         0.909094      0.949291      0.009347
O       9.84448      7.63901     15.77573         0.195526      0.097175      0.241083
O       9.67705      7.66591      7.08792        -0.215414     -0.038297     -0.254613
O       9.81356      7.67571     11.38713        -0.688944     -0.508672      0.137833
O       9.75872     11.50767      2.73099        -0.314860     -1.032927     -0.252189
O       9.77065     11.54315     15.78856        -0.034067     -1.028192     -0.028397
O       9.87567     11.40521      7.12415        -0.986267      0.326980      0.002549
O       9.77094     11.47864     11.41200         0.176829      0.995454     -0.085064
