  # total energy = -7882.28429836 
CRSYTAL
PRIMVEC
    15.3600000000000000    0.0000000000000000    0.0000000000000000
     0.0000000000000000   15.3600000000000000    0.0000000000000000
     0.2400000000000000    0.0000000000000000    17.440000000000000
PRESSURE
2.3867 2.21534 2.51997 -0.172839 -0.847763 -0.028989
PRIMCOORD
320 1
Pb       3.94686      3.88500      4.26747        -0.219774     -0.617863      0.865565
Pb       4.10148      3.80958     17.36057        -0.162437     -0.284029      0.207199
Pb       4.00282     15.25095      4.34941        -0.679659      0.888234      0.319846
Pb       4.00347     15.35632     17.42836         0.073228     -0.169624      0.876317
Pb      15.34945      3.81657      4.22082         0.037491     -0.307164      0.895354
Pb       0.29912      3.82833     17.43652        -0.348924     -0.037306      0.384183
Pb      15.36927      0.06754      4.36543         0.416758      0.230079      0.002924
Pb      15.20439     15.29961      0.02855         0.239174      0.057179     -0.009350
Pb       4.07166      3.67427      8.58587        -0.578838      0.440149      0.209595
Pb       3.87740      0.00433      8.87208         0.161112     -0.280259     -0.997669
Pb      15.38851      3.83542      8.55294         0.598860     -0.359153      1.093814
Pb      15.46757     15.35367      8.66998        -0.238824     -0.193539     -0.081073
Pb       3.90689      3.78596     13.01071         0.918402      0.561723      0.957394
Pb       4.06813     15.35898     13.07939         0.138155     -0.182877      0.140824
Pb       0.19402      3.83232     13.03610        -0.172912     -0.104826      0.233950
Pb       0.22278      0.15058     12.97704         0.184053     -0.531633      0.704080
Pb       3.80061      7.67623      4.27941         0.549607      0.160336      0.092533
Pb       3.98229      7.64369     17.30536        -0.508103      0.451866      1.579859
Pb      15.35802      7.66659      4.27675         0.637669     -0.389645      1.044244
Pb      15.55690      7.76715     17.33557         0.433452     -0.292868      0.359598
Pb       3.87655      7.68407      8.69249         0.114359     -0.223600      0.349979
Pb      15.42539      7.69909      8.70722        -0.227855     -0.655913     -0.132855
Pb       4.02735      7.78000     12.81535         0.414411     -0.652214      0.958057
Pb      15.34415      7.66865     13.08897         0.906757     -0.090655      0.620113
Pb       3.79178     11.49876      4.32696         0.938031     -0.326730      0.392294
Pb       3.88556     11.55544      0.12253        -0.244045      0.119831      0.047616
Pb       0.19065     11.55724      4.26696        -0.644459     -0.196008      1.505208
Pb       0.28005     11.44001     17.37363        -0.155631      0.267454      0.761795
Pb       3.84861     11.52923      8.74313         0.651737     -0.226091     -0.296988
Pb      15.45310     11.41116      8.62573         0.171254      0.579449      0.690699
Pb       3.97715     11.47801     13.06776         0.468064      0.286950     -0.233729
Pb       0.27256     11.53175     12.96352        -0.262032     -0.069535      0.458939
Pb       7.67599      3.80850      4.20341        -0.101412      0.196768      0.896042
Pb       8.00854      3.96370     17.42377        -0.655946     -0.760728     -0.125161
Pb       7.71067      0.09325      4.28370        -0.005830     -0.175540      0.366324
Pb       7.83563     15.25421     17.25096         0.001496      0.477565      1.804789
Pb       7.75032      3.82598      8.63336         0.174632     -0.018084      0.450337
Pb       7.86740      0.03301      8.68254        -0.484865     -0.797626      0.115370
Pb       7.85039      3.63976     13.09117        -0.116571      0.243047     -0.025907
Pb       7.79520     15.32015     13.05396         0.249011      0.070432     -0.118527
Pb       7.71729      7.77172      4.20004         0.081568     -0.251501      0.308093
Pb       7.84482      7.62321     17.43947         0.220481     -0.020805     -0.002358
Pb       7.86218      7.65629      8.75068        -0.048981     -0.168757      0.065282
Pb       7.84963      7.61459     13.06109        -0.192728      0.155008      0.229413
Pb       7.60314     11.50254      4.25202         0.432345      0.013149      0.120123
Pb       7.83427     11.43452     17.39707         0.322114      0.727542      0.601860
Pb       7.82040     11.56687      8.75698        -0.258171      0.057969     -0.458517
Pb       7.85432     11.46508     13.02049        -0.307121      0.174467     -0.075421
Pb      11.55372      3.82481      4.19838         0.048565      0.031416      1.197239
Pb      11.74935      3.85224     17.36879        -0.009372     -0.370743      0.735035
Pb      11.55192     15.33804      4.34993        -0.340791      0.023625      0.332005
Pb      11.81773     15.19465     17.23677        -0.902537      0.744830      1.303395
Pb      11.56346      3.80258      8.62328         0.326938      0.263986      0.798137
Pb      11.51614     15.30110      8.74211         0.688201     -0.292969     -0.579016
Pb      11.72823      3.92041     13.11172        -0.306721     -0.327398     -0.443045
Pb      11.71817     15.35102     13.02962        -0.393251     -0.167490      0.571481
Pb      11.56115      7.67855      4.44169        -0.554736      0.090414     -0.221286
Pb      11.81915      7.67329     17.37637        -0.335178     -0.025827      0.169569
Pb      11.56551      7.60197      8.54965         0.496858      0.363103      0.766329
Pb      11.65832      7.56537     13.11905        -0.215464      0.312966      0.027811
Pb      11.49527     11.52114      4.23601        -0.502474     -0.161857      0.729733
Pb      11.72411     11.41127     17.40677        -0.259241      0.377731      0.467191
Pb      11.64953     11.52056      8.59619        -0.281336     -0.081322      0.085234
Pb      11.70630     11.61443     12.97629        -0.143309     -0.458694      0.324473
Ti       1.96530      1.90087      2.39191         0.145622     -0.647541      0.382505
Ti       2.03087      1.82923     15.54090         0.631665      0.316955     -0.317462
Ti       1.87451     13.43222      2.45153         1.330239      0.902483     -0.998448
Ti       2.02320     13.42639     15.44902         0.398722      0.125763     -0.637907
Ti      13.38559      1.87752      2.32597         0.854534      0.627703      0.391180
Ti      13.58297      1.95265     15.44749         0.644956     -0.487623     -1.091036
Ti      13.43085     13.42576      2.44083         0.272931     -0.209827      0.906353
Ti      13.59398     13.35587     15.33611         0.100710      0.441557      1.615515
Ti       2.00744      1.84852      6.64473         0.944216      0.218725      0.867750
Ti       1.97435     13.40246      6.74318         0.543524     -0.060371      0.851185
Ti      13.52369      1.88281      6.71041        -0.224855     -0.642054      0.341761
Ti      13.50328     13.40357      6.67744        -0.559928      0.871008      0.664191
Ti       2.17182      1.95592     11.09904        -0.917135     -0.566705     -0.002849
Ti       2.21937     13.43272     11.10016        -0.710285     -0.006037      1.380227
Ti      13.59287      1.82367     10.95441         0.006408      0.730835      0.382827
Ti      13.71718     13.40736     11.09364        -0.311764     -0.501459     -1.145086
Ti       1.93372      5.70493      2.34341         0.106418      0.691297     -0.694614
Ti       2.09343      5.74467     15.44808        -0.634581     -0.117513      0.442540
Ti      13.46588      5.85535      2.36782        -0.115579     -2.048897      0.147091
Ti      13.62946      5.71798     15.44587         0.723311      0.363251     -0.467572
Ti       2.05675      5.70815      6.73887        -0.408160     -0.729129      1.694718
Ti      13.53114      5.73430      6.67743         0.003277      0.236331      0.172830
Ti       2.00430      5.83202     11.10424         0.869054     -0.993685      0.855711
Ti      13.53840      5.69593     11.07490        -0.136385     -0.242167     -1.166340
Ti       1.94628      9.58618      2.37899         1.183959     -0.783600     -1.497630
Ti       2.18553      9.66366     15.32527        -0.112829     -0.367592      2.504940
Ti      13.52424      9.61587      2.51216        -0.836640      0.545225      0.420912
Ti      13.64494      9.64222     15.34452         0.031933     -0.773126     -1.318558
Ti       2.00946      9.50662      6.71275         0.208423      0.438207     -0.445750
Ti      13.60463      9.64219      6.59222        -1.385598     -1.408069      1.264270
Ti       1.98990      9.57011     11.00247         1.699237      0.521075     -0.831941
Ti      13.50957      9.50662     11.04222        -0.134069      0.465249      2.647517
Ti       5.77536      1.94878      2.29130        -0.782837     -1.084660      1.646310
Ti       5.96186      1.86205     15.48909        -0.435296      0.450181     -0.168593
Ti       5.73276     13.42915      2.48719         0.245765     -0.001247     -1.927800
Ti       5.76182     13.45910     15.38084         1.553654     -0.455953      0.558744
Ti       5.90090      1.78577      6.74111        -0.553631      0.624833     -1.630885
Ti       5.75867     13.35682      6.65261         0.862763     -0.714880     -0.374259
Ti       5.87924      1.93415     10.96924         1.571536     -0.571595      0.327819
Ti       5.94570     13.40368     10.97869         0.359402      0.479863      0.657840
Ti       5.75330      5.82257      2.22748         0.123189     -0.954993     -0.545143
Ti       5.88551      5.75917     15.43905         0.317379     -0.436471      0.356794
Ti       5.83149      5.82595      6.70609         0.389372     -1.393199     -0.901976
Ti       5.92290      5.75332     11.06147        -0.217930     -0.361318      3.499534
Ti       5.83472      9.54854      2.18456        -1.160204      0.838437      1.599551
Ti       5.96834      9.57239     15.54086        -0.205173      0.766849      0.270360
Ti       5.83716      9.48947      6.68166         0.129353      1.096563     -0.711791
Ti       5.91795      9.65082     10.91642         0.023904     -0.144721      1.888696
Ti       9.63422      1.91222      2.34346        -0.387237      0.099833     -0.631577
Ti       9.76359      1.89018     15.43554        -0.101136     -0.498603      0.512991
Ti       9.55995     13.46703      2.25262        -0.584060     -0.481185     -0.202743
Ti       9.69274     13.40766     15.44667         0.122415      0.215072     -0.329419
Ti       9.66735      1.83399      6.75976         0.307170      0.475372     -1.515241
Ti       9.60200     13.35297      6.58538         0.059072      0.163928      0.508795
Ti       9.86327      1.82229     11.01054        -1.583750      0.406178      0.533833
Ti       9.80837     13.41204     11.04268        -0.824529      0.362429      0.363289
Ti       9.63790      5.74151      2.25289         0.376108      0.465543      0.214255
Ti       9.80192      5.72148     15.44784        -0.187457      0.564266     -0.979912
Ti       9.65199      5.71972      6.73714        -0.434970     -0.110960      0.632786
Ti       9.69703      5.74941     11.10053         0.627421     -0.848166     -1.327723
Ti       9.65862      9.57409      2.19664        -0.178075      0.325925      0.454391
Ti       9.82234      9.55758     15.41530        -0.465545     -0.310044      0.980379
Ti       9.57631      9.63832      6.72727         1.231369     -0.229719     -1.156452
Ti       9.72372      9.59728     11.00583        -0.398325     -0.408940      0.047416
O       1.88079      1.92763      0.63949         0.052695      0.029627     -0.137734
O       2.02673      1.82937     13.76845         0.025165      0.105091     -0.275040
O       1.86348     13.36015      0.69955        -0.138229      0.136296     -0.303332
O       2.09130     13.38872     13.66444         0.155160      0.041122      0.584682
O      13.34561      1.86614      0.58933         0.008875     -0.081669     -0.544111
O      13.60516      1.92305     13.63105         0.132396      0.262551      1.168927
O      13.52632     13.30326      0.73842        -0.065368      0.291807     -0.971528
O      13.52439     13.36379     13.63990         0.017693     -0.070598     -1.317264
O       1.91388      1.92408      4.93749         0.087655     -0.194317     -0.585136
O       1.99694     13.34835      5.02866        -0.039871     -0.070791     -1.065261
O      13.62394      1.84992      4.97159        -0.388812      0.069502     -0.125084
O      13.29912     13.50347      4.95616         0.807421     -0.199555     -0.166999
O       2.20708      1.87496      9.37330        -0.028875     -0.180880     -0.444091
O       2.34124     13.38691      9.39056        -0.641551      0.274288     -1.293874
O      13.51676      1.75581      9.19058         0.350799      0.104771      1.063707
O      13.65585     13.35398      9.31705        -0.100000      0.175553      0.691054
O       1.85208      5.76059      0.59230        -0.031452     -0.256835      0.034817
O       2.12305      5.64569     13.72553        -0.024274      0.174346     -0.730973
O      13.38233      5.83154      0.63091         0.139946      0.083373     -0.639325
O      13.54067      5.66740     13.66661         0.212705      0.041277     -0.032421
O       2.06724      5.67059      5.05932         0.097889      0.372160     -1.700861
O      13.63613      5.78750      4.93232        -0.585137     -0.327960     -0.109122
O       2.11673      5.77720      9.41968        -0.514429      0.131036     -1.514237
O      13.43354      5.71758      9.30733         0.459597      0.239838      0.237180
O       1.84533      9.50923      0.59808        -0.256882      0.481425      1.023001
O       2.12490      9.77706     13.61004         0.234996     -0.459441     -0.541088
O      13.49414      9.66903      0.79851         0.022421     -0.228025     -1.079795
O      13.65081      9.57634     13.54085        -0.090773      0.056617      1.329352
O       1.89975      9.51548      4.92985         0.473714      0.090731      0.673658
O      13.58551      9.51551      4.88531         0.000507      0.054216     -1.237275
O       2.05964      9.50426      9.19988        -0.278523     -0.071623      0.549373
O      13.55595      9.52206      9.36010         0.220539     -0.024282     -1.324602
O       5.75110      1.85382      0.59257        -0.300120      0.299410     -1.339147
O       6.00838      1.75774     13.74398        -0.273743      0.312416     -0.381715
O       5.43493     13.50645      0.69838         0.922042     -0.201009      0.768387
O       5.85276     13.47531     13.63037        -0.018548     -0.253139      0.141769
O       5.94146      1.94113      4.92732         0.064643     -0.316367      1.277419
O       5.81097     13.21583      4.81745        -0.155067      0.489551      1.022410
O       5.93950      1.83308      9.15481        -0.304647      0.054862      1.230240
O       5.83144     13.28584      9.23837         0.148997      0.323611     -0.248146
O       5.75406      5.74627      0.42307        -0.067328     -0.253631      1.276161
O       5.81731      5.78841     13.71643         0.061022      0.146449     -0.288594
O       5.78992      5.84269      4.92316         0.125464      0.074090      0.431002
O       5.82119      5.72897      9.41940         0.442014     -0.088443     -2.675177
O       5.77309      9.64147      0.47094        -0.085508     -0.144426     -0.689230
O       6.01271      9.66925     13.79734        -0.154740     -0.105221     -0.291548
O       5.95828      9.45219      4.84676        -0.108980     -0.055056      1.354707
O       5.89721      9.60836      9.21828         0.010143     -0.214922     -0.731913
O       9.64810      2.03224      0.60116         0.032004     -0.086065      0.064775
O       9.73340      1.77222     13.70687         0.196649      0.427924     -0.458334
O       9.36963     13.44422      0.50309         0.820947      0.262861      0.118414
O       9.84091     13.64195     13.67550        -0.111748     -1.165704      1.031842
O       9.49743      1.90646      4.97640         0.342906      0.177449      0.658354
O       9.63391     13.25849      4.85447         0.068737      0.229661     -0.586680
O       9.77434      1.67613      9.22465        -0.134814      0.183063      0.246741
O       9.68453     13.33355      9.29398         0.269051      0.347828     -0.371892
O       9.69790      5.67527      0.46667        -0.119311      0.078258      0.297767
O       9.88094      5.73819     13.65625        -0.033953     -0.073642      0.355025
O       9.55983      5.75111      5.02079         0.318269      0.102961     -0.590418
O       9.73082      5.77333      9.26740        -0.168681     -0.103198      1.315807
O       9.63715      9.54587      0.43999         0.360212     -0.256650      0.463446
O       9.80137      9.44971     13.67939        -0.338409      0.462615     -0.279127
O       9.58610      9.64327      4.92075        -0.227777     -0.295775      0.857881
O       9.61336      9.66397      9.23846         0.432576     -0.221769      0.554273
O       3.84921      1.79581      2.85920         0.217157      0.617203     -0.416142
O       4.00691      1.84749     15.89444        -0.342171      0.196418     -0.178221
O       3.86769     13.38397      2.90614        -0.446136     -0.037390      0.022696
O       3.97262     13.45502     15.89222        -0.638116      0.068867     -0.356874
O       0.06248      1.90969      2.76947        -0.397253     -0.209629     -0.123906
O      15.48968      1.85327     15.97954        -0.146200      0.042337     -0.279181
O       0.08673     13.46124      2.93357        -1.503971     -0.150662     -0.330721
O      15.47497     13.42284     15.78969         0.104915     -0.353092      0.067135
O       4.02507      1.74113      7.04536        -0.542369      0.375159      0.327113
O       3.92617     13.42801      7.13263         0.367398     -0.449419     -0.100218
O       0.17422      1.92594      7.12721        -0.957229     -0.618813      0.090427
O       0.11908     13.39541      7.24542        -0.426626      0.022970     -0.539714
O       4.04874      1.83893     11.56354         0.213551      0.216043     -0.410167
O       4.05343     13.43292     11.50390         0.262208      0.127703      0.167773
O       0.20807      1.96269     11.49654        -0.653004     -0.087125     -0.540507
O       0.25690     13.33857     11.46850        -0.401081      0.317601     -0.247662
O       3.91964      5.79501      2.72655        -0.456887     -0.145045     -0.084619
O       3.92967      5.74693     15.94666         0.974889     -0.383819     -0.628436
O       0.04630      5.69277      2.76959        -0.196354      0.463496     -0.252325
O      15.54285      5.82152     15.80122         0.244481     -0.275794      0.217796
O       3.99549      5.71810      7.25780        -0.742009      0.232414     -0.524166
O      15.40997      5.59528      7.12396         0.714197      0.466851     -0.071668
O       3.99740      5.78756     11.44118         0.188415      0.381303      0.447468
O      15.48116      5.71111     11.54670         0.259950     -0.269376     -0.245049
O       3.90093      9.60754      2.64187        -0.172868     -0.332206      0.404816
O       4.05997      9.65446     16.04048        -0.674669     -0.026272     -1.501773
O       0.13430      9.64512      2.89505        -1.506503     -0.533357     -0.607590
O       0.22277      9.62988     15.85829        -0.115145      0.128785     -0.772439
O       3.91510      9.45266      7.01266        -0.115907     -0.475297     -0.036986
O       0.11578      9.47040      7.18434        -0.363384      0.543788     -0.290470
O       3.99952      9.61334     11.36681         0.557415     -0.434079      0.026773
O       0.25954      9.61960     11.48021        -2.538147     -0.052716     -0.174308
O       7.64409      1.97621      2.69915         1.161936     -0.103481     -0.064685
O       7.84361      1.89228     15.90097         0.819365      0.270166     -0.234779
O       7.73462     13.55086      2.74151        -0.429784     -0.585000      0.007228
O       7.78306     13.47575     15.83762         0.514458     -0.470426     -0.805942
O       7.82529      1.86212      7.23519        -0.265224      0.129498     -0.112350
O       7.74937     13.19025      7.02318        -0.454078      0.359873      0.052772
O       7.80692      1.96479     11.55051        -0.012083     -0.746354     -0.936927
O       7.95006     13.42704     11.44971        -1.564106     -0.575542      0.057497
O       7.74361      5.74069      2.56890        -0.012501     -0.106651     -0.057436
O       7.83557      5.83528     15.78875         0.554845     -0.424508     -0.054204
O       7.71020      5.65924      7.18195         0.781242      0.529345     -0.070203
O       7.90422      5.58202     11.66398        -0.979773      0.219147     -0.664093
O       7.68195      9.53964      2.50305         1.410282     -0.443484      0.444258
O       7.89014      9.46934     16.05498         0.326873      0.429965     -1.406549
O       7.78770      9.48665      7.17988        -0.601558      0.435625     -0.390647
O       7.79751      9.63478     11.49520         0.531009      0.611706     -0.148222
O      11.51883      1.86463      2.92080         0.146271      0.284259     -0.731379
O      11.72374      1.88611     15.85641         0.066667      0.360263     -0.281018
O      11.55420     13.35058      2.72193        -0.516518      0.621693     -0.246343
O      11.67729     13.28862     15.97473         0.447976      0.413862     -1.014467
O      11.59102      1.77367      7.11305         0.013091      0.100026     -0.236384
O      11.56009     13.39582      7.06249         0.922292     -0.254956      0.274555
O      11.71005      1.67239     11.38001         0.592460      0.451744     -0.275145
O      11.67898     13.52136     11.41285         0.919591     -0.353826      0.232715
O      11.62860      5.67068      2.81492        -0.957715      0.387561     -0.195098
O      11.79547      5.68200     15.79329        -0.755438      0.266184      0.259068
O      11.60383      5.75237      7.16049        -0.009367     -0.421106     -0.674684
O      11.65544      5.81453     11.52176        -0.566793      0.008670      0.119094
O      11.54216      9.59277      2.84922         0.395366      0.278965     -0.470055
O      11.69286      9.60375     15.87295         1.010414     -0.125088     -0.491336
O      11.70458      9.65724      7.00089        -0.397357     -0.352190      0.155999
O      11.58962      9.42228     11.47082         0.917684      0.224999     -0.455598
O       2.00455      3.86301      2.82978         0.104182     -0.361393     -0.440579
O       2.04939      3.73134     15.89383         0.153574      1.033512     -0.117629
O       1.97180     15.31233      2.82127        -0.050651      0.318141     -0.013393
O       1.99905     15.31231     16.02628         0.187244     -0.414918     -0.536706
O      13.46118      3.73740      2.77363         0.040911      0.748865     -0.203258
O      13.72699      3.86698     15.90183        -0.205886     -0.736965     -0.306213
O      13.48112      0.05566      2.86746        -0.045383     -1.481333     -0.385278
O      13.59734     15.32363     15.77801         0.057697     -0.457137     -0.121267
O       2.09498      3.73020      7.18493         0.178479      0.600925     -0.171035
O       2.09593     15.25839      7.15630        -0.594049      0.983181      0.199600
O      13.49359      3.72999      7.18225        -0.182793      0.627954     -0.519141
O      13.54710     15.31729      7.17060         0.448676     -0.527202     -0.258938
O       2.18730      3.80739     11.52251        -0.629171      0.561065     -0.136529
O       2.18224      0.01108     11.51228        -0.503920     -0.204989     -0.175485
O      13.43673      3.83953     11.38725         0.499354     -1.536820      0.214762
O      13.71551     15.28761     11.52995         0.025426      0.699650     -0.661367
O       1.99430      7.64176      2.82469        -0.462727     -0.054275     -0.260932
O       2.10766      7.73413     15.88608         0.086323     -0.065637     -1.049655
O      13.37599      7.62739      2.88145         0.839889      1.447893     -0.391546
O      13.69651      7.72923     15.78211        -0.515681     -0.004618     -0.017948
O       1.89774      7.58691      7.14543         0.603101      0.077899     -0.016095
O      13.53659      7.59816      7.05775         0.288720      0.689771      0.101598
O       2.00432      7.71560     11.49239         0.323173     -0.390849      0.052940
O      13.67250      7.55387     11.64114        -0.586547      1.705414     -1.098399
O       2.01995     11.50683      2.81732        -0.440490     -0.310379     -0.193321
O       2.15509     11.55685     15.92533        -0.211438     -0.476249     -0.618663
O      13.53895     11.52216      2.97617         0.044965     -0.050560     -0.640629
O      13.60518     11.45035     15.84271         0.168634      0.525211     -0.201943
O       2.05506     11.45885      7.22046        -0.340078     -0.348336     -0.580942
O      13.64734     11.45487      7.12015        -0.093351      0.909175     -0.378641
O       2.20383     11.47679     11.45723        -0.341859      0.222623     -0.096501
O      13.56145     11.48034     11.54727        -0.034787     -0.424586     -0.656026
O       5.68847      3.78613      2.80107         0.572285      1.277244     -0.992663
O       5.93453      3.77934     15.83000        -0.087995      1.063923     -0.029135
O       5.79758     15.35031      2.85572        -0.063072      0.033934     -0.239608
O       5.89787     15.34281     15.86563        -0.125704     -0.645108     -0.094038
O       5.93311      3.76558      7.11275        -0.388100      0.197746     -0.064407
O       5.96603     15.20875      7.01298         0.198382      0.311217      0.017718
O       5.89702      3.76502     11.55287        -0.275013      0.384528     -0.564821
O       5.96549     15.30443     11.41224        -0.252059      0.697816     -0.250902
O       5.86062      7.63388      2.58365        -0.249489      0.305209      0.131824
O       5.86202      7.70333     15.97135         0.464669     -0.705069     -0.921530
O       5.93234      7.61397      7.22945        -0.323954      0.533543     -0.183379
O       6.09928      7.72214     11.46722        -0.855733     -0.473616     -0.373307
O       5.84310     11.46412      2.68358        -0.124833      0.106897     -0.100818
O       5.96370     11.57675     15.95834        -0.214253     -0.264998     -0.588420
O       5.77234     11.34683      7.08799         0.147640      0.487395     -0.274995
O       5.88010     11.57548     11.46147         0.508000     -1.209989      0.080766
O       9.68541      3.88228      2.74784        -0.109326     -0.324505     -0.099901
O       9.82353      3.81726     15.80293        -0.153496      0.064362      0.054891
O       9.61291      0.06643      2.75644         0.309526     -0.809542     -0.220386
O       9.78788      0.01250     15.87439         0.387397     -0.745406     -0.003098
O       9.75495      3.81503      7.21857        -0.604650     -0.402948     -0.582201
O       9.59141     15.24792      6.98160         0.197847      0.242446      0.420645
O       9.85527      3.69995     11.43331         0.243866      0.316573      0.060627
O       9.70533     15.33320     11.59568         0.290485      0.336313     -0.946088
O       9.83979      7.66492      2.64573        -0.775306     -0.478047      0.039104
O       9.92032      7.57679     15.80402        -0.156447      0.798425      0.165594
O       9.69846      7.66965      7.18862        -0.176335      0.032043     -0.606996
O       9.52706      7.62519     11.40076         0.649674      0.486752     -0.049191
O       9.51327     11.50422      2.47952         0.631872     -0.221392      0.526338
O       9.77876     11.49795     15.89865        -0.387560     -0.297788     -0.906778
O       9.70731     11.50355      7.18151         0.047934     -0.706744     -0.174457
O       9.82072     11.50212     11.47649         0.008956     -0.462528      0.058855
