  # total energy = -7885.40365551 
CRSYTAL
PRIMVEC
    15.3600000000000000    0.0000000000000000    0.0000000000000000
     0.0000000000000000   15.3600000000000000    0.0000000000000000
     0.2400000000000000    0.0000000000000000    17.440000000000000
PRESSURE
0.965979 0.862657 2.24127 -0.150659 -1.10151 0.001093
PRIMCOORD
320 1
Pb       3.89811      3.83186      4.32059         0.064243      0.113349     -0.674435
Pb       4.07358      3.81881     17.39587        -0.200432      0.068114      0.037173
Pb       3.91683     15.31684      4.33001        -0.279424      0.149512      0.001981
Pb       4.04883     15.34894     17.41976        -0.061836     -0.295481     -0.542734
Pb      15.38840      3.81755      4.30336        -0.105534      0.060977     -0.258951
Pb       0.24248      3.82245     17.42017        -0.008462      0.021850     -0.417980
Pb      15.39288      0.00478      4.33621        -0.026922     -0.257685      0.002351
Pb      15.54740     15.33360     17.42849         0.269652     -0.011005     -0.370924
Pb       3.97448      3.78444      8.66217        -0.181794     -0.196203      0.003490
Pb       3.92665     15.34775      8.74174        -0.111819      0.021303     -0.361042
Pb      15.44366      3.82719      8.65749        -0.174070     -0.133556     -0.204272
Pb      15.46315     15.34495      8.69082         0.059351      0.004625     -0.283213
Pb       3.97483      3.81295     13.04333         0.043040     -0.300256     -0.312356
Pb       4.01615     15.34161     13.06508        -0.043829      0.208303     -0.575353
Pb      15.53219      3.82387     13.05372        -0.377300     -0.063629     -0.496843
Pb      15.53330      0.02269     13.03895         0.146880     -0.062790     -0.644688
Pb       3.85354      7.66615      4.31624         0.530917     -0.104797      0.072337
Pb       4.04349      7.65926     17.38868         0.021329     -0.280934     -0.440346
Pb      15.39570      7.66136      4.31727        -0.535430      0.116531     -0.252710
Pb      15.57699      7.68825     17.39460         0.053982     -0.342606     -0.147199
Pb       3.92238      7.66533      8.69858         0.069183      0.236991     -0.619136
Pb      15.45576      7.67162      8.69449         0.012535     -0.098331     -0.067681
Pb       4.00884      7.68346     12.98398        -0.238308      0.323358      0.309889
Pb      15.47259      7.65939     13.06720         0.146841      0.130335     -0.863524
Pb       3.86058     11.50457      4.32326        -0.196639     -0.172713      0.138095
Pb       3.84161     11.50941      0.01368        -0.204398      0.351165     -0.509668
Pb       0.07693     11.51600      4.30445         0.176440     -0.142686      0.387923
Pb      15.59636     11.48068     17.39909         0.348029      0.423210      0.036863
Pb       3.91751     11.50822      8.71322        -0.121840      0.027637     -0.528349
Pb      15.46375     11.47699      8.68226        -0.198987      0.208482     -0.630489
Pb       3.99162     11.49949     13.05482         0.209405     -0.191922     -0.198389
Pb       0.18755     11.51054     13.03189         0.020528     -0.106003     -0.431289
Pb       7.70707      3.81914      4.30355         0.043768     -0.365181     -0.364946
Pb       7.92887      3.85653     17.42199        -0.175362     -0.110842     -0.527741
Pb       7.71742      0.00555      4.31743        -0.050517      0.296992     -0.005166
Pb       7.88671     15.31637     17.37034        -0.240903      0.208013     -0.199370
Pb       7.77504      3.81829      8.68070         0.063170      0.149015     -0.419685
Pb       7.80319     15.35549      8.69279        -0.088212     -0.060367     -0.249781
Pb       7.84346      3.77296     13.06260        -0.015688      0.196599     -0.076197
Pb       7.82926     15.33820     13.05583        -0.103543     -0.284393     -0.356904
Pb       7.72022      7.68817      4.29873        -0.124984      0.044829     -0.032654
Pb       7.89017      7.65248     17.42701        -0.341155     -0.009051     -0.615315
Pb       7.80694      7.65848      8.71592        -0.281239      0.091800     -0.827218
Pb       7.84194      7.64478     13.05647        -0.044998      0.246863     -0.380761
Pb       7.68997     11.50450      4.31538         0.035077     -0.295162     -0.293311
Pb       7.88594     11.48598     17.41503        -0.225138     -0.144985     -0.569384
Pb       7.79051     11.52312      8.71592         0.150489     -0.300895     -0.516200
Pb       7.84168     11.49432     13.04310         0.160729     -0.012159     -0.064901
Pb      11.56248      3.82108      4.29334        -0.275886     -0.091079      0.038546
Pb      11.74390      3.83331     17.40813        -0.169840     -0.357267     -0.769672
Pb      11.56075     15.34251      4.34261        -0.238552     -0.065032     -0.714337
Pb      11.76853     15.29942     17.36173        -0.522209      0.382665      0.291470
Pb      11.60648      3.81335      8.68500        -0.008839      0.292086     -0.668090
Pb      11.59799     15.33213      8.70956        -0.310982     -0.055466     -0.312661
Pb      11.69060      3.84822     13.07111         0.148170     -0.299582     -0.340269
Pb      11.69017     15.34665     13.05024        -0.174868     -0.144065     -0.530206
Pb      11.56204      7.66598      4.36551        -0.025885     -0.192585     -0.551139
Pb      11.75674      7.66119     17.41015         0.083717     -0.023574     -0.683616
Pb      11.60313      7.64880      8.65789         0.047487     -0.433748     -0.032862
Pb      11.67823      7.63289     13.07649        -0.057655      0.172808     -0.831286
Pb      11.54852     11.49958      4.31048        -0.322775      0.336042     -0.316540
Pb      11.73408     11.47864     17.41294        -0.087475      0.037982     -0.577136
Pb      11.62814     11.50895      8.66855        -0.213212      0.083700     -0.110243
Pb      11.69061     11.52686     13.03518        -0.491395      0.050355     -0.348819
Ti       1.89116      1.89719      2.33227         0.864706      0.028319      0.564174
Ti       2.08859      1.89050     15.42724         0.361592     -0.094418      0.776618
Ti       1.92312     13.41450      2.32941        -0.109146      0.051811      0.220010
Ti       2.06083     13.41180     15.38346         0.863816      0.417511      0.825541
Ti      13.46644      1.91583      2.33128        -0.707274     -0.367737      0.326987
Ti      13.61739      1.88948     15.41150        -0.043905      0.705662     -0.968794
Ti      13.49797     13.41752      2.32889        -0.767631      0.663958      1.655084
Ti      13.56965     13.42801     15.35966         0.631888     -0.254918      1.633928
Ti       2.03957      1.90839      6.61413        -0.935356     -0.658112      1.587096
Ti       1.97410     13.40117      6.68183         0.341323      0.344562      0.914476
Ti      13.51813      1.86740      6.65754        -0.027833      0.677030      0.988485
Ti      13.41171     13.44349      6.66710         1.534479     -0.394844      0.877507
Ti       2.03043      1.95092     11.03203         1.115101     -0.722916      0.356385
Ti       2.11456     13.37070     11.01623        -0.270919      1.102905      1.642117
Ti      13.53875      1.86693     10.97026         0.155993      0.104937      0.800526
Ti      13.62281     13.35491     11.03965        -0.173246      1.492638     -0.274569
Ti       1.89447      5.78224      2.33028         0.489096     -1.061029     -0.381978
Ti       2.07704      5.74736     15.36567         0.384721     -0.547433      2.139686
Ti      13.39944      5.72380      2.27378         1.052103      0.848087      2.002052
Ti      13.63104      5.75506     15.35295        -0.048677     -0.744915      1.417370
Ti       2.00743      5.69382      6.67529         0.279527      0.819889      1.785949
Ti      13.54892      5.76997      6.63917        -0.454239     -0.584598      0.689225
Ti       2.08346      5.78556     11.00051        -1.035495     -0.061764      2.109260
Ti      13.54874      5.72957     11.03683         0.218096     -0.150713     -0.309909
Ti       1.95931      9.52307      2.36341        -0.448161      1.250244     -1.202353
Ti       2.11135      9.61792     15.38997         0.759107     -0.298049      0.476057
Ti      13.45925      9.66088      2.34891         0.572138     -1.435976      2.579781
Ti      13.69762      9.64567     15.38831        -1.329045     -0.731017     -1.486911
Ti       1.96546      9.53829      6.68666         0.319979      0.239065     -0.322274
Ti      13.51265      9.57104      6.61453         0.720200      0.529304      1.029417
Ti       2.02625      9.60965     10.98341         0.466910     -0.965320      0.103985
Ti      13.53039      9.57714     11.03610         0.143230     -0.678264      2.388745
Ti       5.72112      1.86948      2.30654         0.778064      0.932175      1.474820
Ti       5.93365      1.90232     15.43457         0.162411     -0.394361     -0.185957
Ti       5.72704     13.44482      2.36662         0.037445     -0.223391     -1.088000
Ti       5.95113     13.38282     15.34423        -1.142992      0.832709      1.378649
Ti       5.82181      1.86346      6.70552         0.569031     -0.046794     -1.042089
Ti       5.84526     13.35719      6.66170        -0.358839      1.183887      0.074070
Ti       5.99289      1.93997     10.98814        -2.132155     -0.851504      0.012692
Ti       5.90558     13.39798     10.98651        -0.082309      0.251889      1.004839
Ti       5.78417      5.74711      2.29372        -0.322150      0.170386     -0.562407
Ti       5.89583      5.73318     15.36754         0.580172     -0.107498      1.285717
Ti       5.77606      5.73777      6.66275         0.914920      0.695665      0.015713
Ti       5.86515      5.76873     11.02904         0.232781     -0.180479      2.540232
Ti       5.77312      9.60530      2.25398         0.508525     -0.292610      0.919911
Ti       5.92878      9.59586     15.44944         0.373828     -0.280898      0.481083
Ti       5.81158      9.60970      6.64779         0.351373     -1.182396      0.392989
Ti       5.89936      9.59163     10.98135        -0.188410      0.152282      1.183949
Ti       9.62797      1.90361      2.27600        -0.188261     -0.313059      0.726768
Ti       9.78467      1.86689     15.39249        -0.164277      0.941680      0.729196
Ti       9.54807     13.44053      2.27683         0.442276      0.021700      0.635960
Ti       9.76670     13.38724     15.42766        -0.201692     -0.005705     -0.776287
Ti       9.66153      1.87337      6.65623        -0.235102     -0.080523      0.169897
Ti       9.59185     13.38098      6.58628         1.003188      0.515465      1.562471
Ti       9.72045      1.88308     11.01674         1.245715     -0.350185      0.768240
Ti       9.72440     13.42829     10.99078         0.121960     -0.327412      1.060053
Ti       9.64723      5.76804      2.23087        -0.753863     -0.797655      1.670724
Ti       9.80178      5.78528     15.37513         0.127961     -1.320071      0.544570
Ti       9.63687      5.74381      6.67776         0.539112     -0.229391      0.936023
Ti       9.69393      5.71703     11.03195         0.708774      0.466793     -0.696181
Ti       9.64565      9.58734      2.24605        -0.866992     -0.165543      0.537360
Ti       9.82214      9.55832     15.36986        -0.335246      0.521690      1.196997
Ti       9.72449      9.59406      6.68218        -1.606704      0.101734     -0.203658
Ti       9.68255      9.60173     10.99008         0.903904      0.048478      0.403849
O       1.96074      1.95814      0.61731        -0.309058     -0.261671     -1.557606
O       2.06028      1.89128     13.70549         0.039506     -0.074502     -1.715918
O       1.88185     13.39189      0.58279         0.014585      0.019053     -0.584874
O       2.09606     13.43974     13.64184        -0.164370     -0.227589     -0.692593
O      13.39620      1.86528      0.61185         0.080105      0.127206     -1.535957
O      13.56376      1.95929     13.62190         0.238686     -0.408898      0.328488
O      13.55231     13.34399      0.63771        -0.392618      0.007225     -2.004757
O      13.54813     13.37437     13.67067         0.194263      0.136093     -2.103567
O       1.90812      1.96375      4.88838         0.138016     -0.140525     -0.997207
O       1.99479     13.43806      4.97017        -0.053615     -0.104778     -1.672112
O      13.54512      1.85419      4.91715         0.027224      0.233832     -1.047265
O      13.49103     13.45579      4.94041        -0.369978     -0.015850     -1.045046
O       2.13027      1.85990      9.30424        -0.234399      0.300494     -0.745505
O       2.20561     13.38336      9.31038        -0.159106     -0.132228     -1.887797
O      13.59399      1.78431      9.21905        -0.299200      0.484876     -0.285834
O      13.67426     13.46098      9.28323        -0.463718     -0.395682     -0.429738
O       1.89795      5.70605      0.58104        -0.005396      0.349801     -0.600984
O       2.16164      5.75404     13.68182        -0.273789     -0.189307     -1.911160
O      13.44653      5.76185      0.57074        -0.185249      0.020598     -1.501636
O      13.55081      5.67349     13.62944         0.188307      0.260529     -1.237789
O       2.10339      5.77399      4.98608        -0.517501     -0.294118     -2.283715
O      13.57832      5.73148      4.89235        -0.102601      0.199086     -0.399300
O       2.03940      5.77753      9.30396         0.211221     -0.165438     -1.604460
O      13.51253      5.79425      9.27448         0.009378     -0.312016     -0.494341
O       1.84201      9.60107      0.55965         0.298592     -0.305217      0.137609
O       2.12458      9.62801     13.67886        -0.289849      0.136355     -1.435629
O      13.49986      9.57209      0.67137        -0.283767      0.169003     -2.663845
O      13.65094      9.52685     13.59385         0.013413      0.288806      0.338133
O       1.93869      9.67316      4.90570         0.049366     -0.560606     -0.117052
O      13.58237      9.56837      4.89786        -0.320597     -0.065857     -1.486088
O       2.06911      9.53306      9.21865        -0.050812      0.235609     -0.534648
O      13.58375      9.54221      9.37034        -0.089519      0.181708     -2.888760
O       5.78177      1.98168      0.61246         0.050461     -0.526855     -2.142231
O       5.92378      1.87462     13.68120         0.289287     -0.050059     -1.250163
O       5.58732     13.46007      0.57919         0.427565     -0.018039      0.428662
O       5.83502     13.46245     13.61958         0.322824     -0.094801     -1.007047
O       5.87456      1.93044      4.90241        -0.252843      0.002296      0.535908
O       5.80732     13.37147      4.90363        -0.055546     -0.016488     -0.515003
O       5.88938      1.84312      9.22837         0.066323      0.342331     -0.337299
O       5.82389     13.43663      9.25116         0.112811     -0.330394     -1.149907
O       5.79318      5.74213      0.51007        -0.138757      0.199050      0.074018
O       5.83435      5.79092     13.63210         0.421758     -0.227715     -0.725937
O       5.78859      5.81043      4.90834         0.025626     -0.220582     -0.777540
O       5.90066      5.72374      9.37020        -0.190090     -0.020308     -3.150991
O       5.74405      9.64568      0.50843         0.061496     -0.144620     -1.112356
O       5.95596      9.57968     13.73721         0.052212      0.078813     -1.620028
O       5.79513      9.52114      4.89706         0.203131      0.236261     -0.578487
O       5.82887      9.58087      9.26776         0.168814      0.121933     -1.430793
O       9.68054      1.92685      0.52148        -0.324225     -0.014180     -0.285786
O       9.77547      1.84282     13.63975        -0.152826     -0.038932     -0.996428
O       9.56231     13.55157      0.52389        -0.254477     -0.623713     -0.761965
O       9.80602     13.47093     13.67469        -0.102374      0.259409     -0.398138
O       9.56280      1.91370      4.89331         0.347965     -0.179642      0.334376
O       9.66619     13.43378      4.85829        -0.005802     -0.364011     -1.033864
O       9.69157      1.72539      9.31230         0.085768      0.515150     -1.648691
O       9.70771     13.48200      9.26450        -0.026958     -0.561600     -1.032102
O       9.61963      5.67772      0.51024         0.149896      0.240690     -1.126084
O       9.80470      5.71969     13.61840        -0.115835      0.187400     -0.620678
O       9.61788      5.79211      4.95956         0.086051     -0.247837     -1.070038
O       9.68597      5.71804      9.22748         0.151902      0.188168      0.329892
O       9.59545      9.51401      0.47847         0.161835      0.312317     -0.209998
O       9.72661      9.62462     13.66699         0.306909     -0.550950     -1.505268
O       9.55220      9.63898      4.92263         0.637117     -0.161168     -0.157839
O       9.63174      9.63363      9.22963         0.152129     -0.104844     -0.619468
O       3.88219      1.81739      2.65080        -0.520338      0.164740      0.673723
O       4.04407      1.84285     15.75748        -0.623142      0.225559      0.544276
O       3.80412     13.37284      2.81047         0.740459      0.204387     -0.021413
O       4.00200     13.47554     15.74393        -0.103824     -0.268818      0.380040
O      15.35845      1.86694      2.61491         0.143963      0.305972      0.715244
O      15.55856      1.81805     15.79759        -0.641804      0.171829      0.464024
O       0.05303     13.38772      2.73332        -0.608398      0.276700      0.292623
O      15.50217     13.34681     15.80032         0.026832      0.361617      0.053400
O       3.92119      1.80133      7.05220         0.113646      0.361547      0.063366
O       3.95990     13.35507      6.99693        -0.238253      0.396766      0.616375
O      15.42433      1.89847      7.10904         0.290067      0.491605     -0.097835
O       0.15730     13.45500      7.03930        -1.292478     -0.227257      0.574904
O       4.01282      1.92704     11.37436        -0.008872     -0.145928      0.563529
O       4.02360     13.30713     11.43762        -0.147728      0.159124      0.245092
O       0.17087      1.91512     11.38951        -0.671314     -0.062989      0.385821
O       0.19111     13.37586     11.37464        -0.383797     -0.149219      0.585213
O       3.81835      5.78137      2.71186         0.480323      0.149880      0.220177
O       4.06738      5.67535     15.86583        -0.665900      0.332816     -0.078582
O      15.38659      5.75553      2.63145        -0.270282     -0.330336      0.675609
O      15.53753      5.69535     15.83455         0.261541      0.415547     -0.148225
O       3.95559      5.74072      7.00199        -1.083168     -0.177694      0.843582
O       0.12217      5.69623      7.12063        -0.607301     -0.070188     -0.136872
O       3.94337      5.84419     11.51510         0.620491     -0.600942     -0.454763
O      15.50149      5.67002     11.40192         0.240845      0.415838      0.451038
O       3.90039      9.54750      2.70843        -0.492983      0.348096     -0.045878
O       4.02252      9.64323     15.70008        -0.410828     -0.245046      0.909903
O       0.07048      9.51552      2.68883        -0.918087      0.597469      0.464042
O      15.52285      9.62432     15.67148         0.606755     -0.218005      0.919045
O       3.89809      9.40291      6.97500        -0.088785      0.971164      0.512087
O      15.43182      9.54667      7.09515        -0.071205     -0.098089      0.271108
O       3.99689      9.55664     11.37853         0.127201      0.353591      0.278552
O       0.18651      9.60564     11.36008        -1.070176      0.023718      0.610426
O       7.72359      1.87784      2.77663        -0.181420      0.064450     -0.356703
O       7.86795      1.95582     15.72249         0.215227     -0.448516      0.596095
O       7.59533     13.35558      2.74691         1.329305      0.671730     -0.175308
O       7.83409     13.37015     15.70285         0.121934      0.581181      0.647699
O       7.75962      1.90761      7.12755         0.199998      0.066285      0.109465
O       7.79428     13.36192      6.99331        -0.781720     -0.004805      0.386413
O       7.88677      1.89504     11.36811        -1.041269      0.343426      0.796736
O       7.76194     13.33578     11.41979         0.936017      0.594046      0.181528
O       7.69993      5.67741      2.59117         0.297484      0.381181      0.405902
O       7.93822      5.75186     15.77265        -0.934856      0.152461      0.087364
O       7.77252      5.75824      7.11281        -0.289523     -0.312101      0.181522
O       7.82795      5.68703     11.40465        -0.362126      0.045788      0.567537
O       7.77453      9.40784      2.70510        -0.352484      0.973083     -0.278011
O       7.86739      9.60807     15.71502         0.183033     -0.489975      0.959968
O       7.71988      9.57185      7.01949         0.341336     -0.075055      0.567443
O       7.88316      9.71097     11.43315        -0.913895     -0.867597      0.211729
O      11.56186      1.93615      2.69842        -0.369118     -0.238292      0.553678
O      11.71539      1.95944     15.74772         0.023863     -0.424176      0.459413
O      11.46047     13.44393      2.68302         1.032217     -0.508833      0.198331
O      11.65029     13.44128     15.76218         0.575314     -0.403256      0.672451
O      11.58758      1.82117      7.03318        -0.066073      0.176729      0.247080
O      11.58973     13.31251      7.14677         0.125661      0.398133     -0.378523
O      11.61021      1.89173     11.36517         1.124412     -0.338296      0.275279
O      11.67188     13.37729     11.45004         0.435643      0.476878      0.032889
O      11.52634      5.74377      2.75801         0.056312     -0.242206     -0.066935
O      11.76041      5.72709     15.80537        -0.438260     -0.133354      0.266681
O      11.62875      5.71368      7.02336        -0.472317      0.481864      0.330912
O      11.65943      5.85999     11.39653        -0.290923     -0.469160      0.450285
O      11.50739      9.63305      2.75848         0.658099     -0.273773     -0.018384
O      11.79435      9.63536     15.82481        -0.910531     -0.258649      0.402224
O      11.61316      9.61713      7.00351         0.177555      0.071110      0.278540
O      11.61567      9.51719     11.36735         0.546169      0.298835      0.386968
O       1.99215      3.78522      2.71447        -0.289996      0.609121      0.528970
O       2.09155      3.80073     15.79505         0.054644      0.112056      0.262307
O       1.93307     15.34129      2.76512         0.017273     -0.348817      0.035795
O       2.07131     15.34606     15.83549        -0.064983     -0.616798      0.280631
O      13.46230      3.86036      2.71544         0.161257     -0.501881      0.242697
O      13.67965      3.77745     15.76010        -0.018518      0.416875      0.537521
O      13.45463     15.34838      2.67832         0.089273     -0.521685      0.453341
O      13.56981     15.31483     15.74545         0.275224      0.007001      0.373886
O       2.05824      3.79027      7.13136        -0.016467     -0.015662     -0.041460
O       1.94384      0.03792      7.13608         0.695017     -0.514384     -0.272183
O      13.42359      3.86299      6.99931         0.656372     -0.648852      0.488672
O      13.55484     15.35605      6.99004        -0.230204     -0.879739      0.445923
O       2.06013      3.84376     11.46006         0.360358      0.131905      0.078945
O       2.08090     15.28303     11.41961         0.092000      0.490397      0.346190
O      13.58517      3.79787     11.45554        -0.302966     -0.277323     -0.170637
O      13.64664     15.34116     11.40280        -0.246047      0.047614      0.510475
O       1.85116      7.67275      2.72146         0.776648     -0.300284      0.221450
O       2.15949      7.62740     15.66934        -0.313877      0.684687      0.880017
O      13.50134      7.64388      2.73398        -0.499326      0.438234      0.232304
O      13.58768      7.62585     15.72707         0.511093      0.940664      0.475820
O       1.98284      7.60647      7.11541        -0.075870      0.140228     -0.007407
O      13.53601      7.70245      7.05446        -0.125738     -0.605019      0.153701
O       2.04769      7.71658     11.46796        -0.154864     -0.559870      0.090855
O      13.61148      7.59913     11.38713         0.308487      1.184384      0.796348
O       1.91745     11.48712      2.73636         0.305082     -0.120324      0.161178
O       2.10235     11.51054     15.77423        -0.110548      0.020790      0.349470
O      13.48552     11.52323      2.76556        -0.176474     -0.180524      0.094576
O      13.52717     11.52125     15.75622         0.436104     -0.168409      0.537719
O       1.96067     11.45520      7.03727         0.461842      0.128525      0.605049
O      13.61428     11.48953      7.00547        -0.271774      0.153790      0.549933
O       2.05356     11.45947     11.39019         0.303579      0.456537      0.471225
O      13.55074     11.53099     11.42394         0.261392     -1.188261      0.250498
O       5.73018      3.85452      2.55186        -0.013111     -0.263709      1.071710
O       5.91463      3.77892     15.73499         0.356743      1.033511      0.360423
O       5.79441     15.34433      2.79913        -0.115622     -0.509300     -0.174192
O       5.92213     15.34803     15.86280         0.554900     -0.492575      0.047371
O       5.75184      3.82508      7.05047         0.569386     -0.338495      0.413568
O       5.98653     15.35450      7.02872        -0.619932     -0.661636      0.159339
O       5.85908      3.81357     11.36574         0.402772      0.167972      0.518026
O       5.92233     15.34284     11.35793         0.123938      0.060829      0.470739
O       5.79349      7.73467      2.59250        -0.031898     -1.173485      0.399147
O       5.89541      7.65244     15.78190         0.248637     -0.137664      0.465900
O       5.78375      7.63301      7.08663         0.618279      0.048842      0.412530
O       5.93797      7.68243     11.36647         0.461944      0.000561      0.494927
O       5.89862     11.50660      2.58131        -0.637014     -0.516038      0.639865
O       5.88300     11.53503     15.84967         0.372056     -0.101817      0.117622
O       5.86168     11.50641      6.99158        -0.200501     -0.640634      0.560818
O       6.02536     11.45504     11.41136        -0.963398      0.315962      0.127226
O       9.61463      3.75209      2.76725         0.247913      1.088207     -0.201317
O       9.77849      3.81790     15.76282         0.313473      0.203907      0.253937
O       9.62877     15.29399      2.71016        -0.260533      0.790486      0.130083
O       9.79177      0.00781     15.87382        -0.163425     -0.380850     -0.124800
O       9.67353      3.74178      7.12488         0.182922      0.709015      0.018725
O       9.71771     15.24890      7.09178        -0.186206      0.750797     -0.193588
O       9.88426      3.85801     11.34968        -0.722892     -0.657244      0.396284
O       9.76337     15.26700     11.30172        -0.263163      1.219439      1.158413
O       9.67319      7.59600      2.65087         0.207403      0.633305      0.127441
O       9.86721      7.64826     15.75999         0.008714      0.279460      0.289443
O       9.70518      7.69234      7.02933         0.061914     -0.329424      0.417631
O       9.71373      7.67450     11.41824        -0.393480      0.029394      0.207478
O       9.58174     11.48852      2.59208        -0.061333     -0.166439      0.174470
O       9.64511     11.46942     15.59032         0.997657      0.567758      1.358911
O       9.64443     11.50626      7.11498         0.359363     -0.318939      0.080515
O       9.79728     11.57000     11.43441        -0.101853     -1.257388      0.191876
