  # total energy = -7878.29847325 
CRSYTAL
PRIMVEC
    15.3600000000000000    0.2300000000000000    0.0000000000000000
     0.0000000000000000   15.3600000000000000    0.0000000000000000
     0.0000000000000000    0.0000000000000000    17.440000000000000
PRESSURE
-0.005133 0.009857 -6.2458 -0.170365 0.092236 -1.59958
PRIMCOORD
320 1
Pb       3.82327      3.84768      4.26492        -0.201808     -0.485161      0.036304
Pb       3.73724      3.95938     17.34522         0.589138     -0.583431      0.502921
Pb       3.70072      0.05552      4.50012        -0.048760      0.164100     -0.548862
Pb       3.69567     15.34652     17.36933         0.371178      0.023522     -0.406223
Pb       0.10693      3.77052      4.27990        -0.591935     -0.427722      0.080785
Pb       0.00307      3.73212     17.29461        -0.057141      0.217881      0.647110
Pb      15.27425      0.34828      4.40775         0.189724     -0.162162     -0.203207
Pb      15.27623     15.50458     17.31897         0.475528     -0.318666     -0.178245
Pb       3.83666      3.97439      8.67055         0.390262      0.139239     -0.195204
Pb       3.69538      0.16447      8.84651         0.121382      0.030837     -0.560698
Pb       0.06826      4.17948      8.86083        -0.214901     -0.816078     -0.741856
Pb       0.02118     15.33244      8.74869        -0.483871      0.141491      0.068660
Pb       4.05164      4.00568     13.06239        -0.518643     -0.314694     -0.044547
Pb       3.82695      0.19877     13.11700        -0.126239     -0.390146     -0.331424
Pb      15.32745      4.11579     13.02882        -0.373021     -0.468102     -0.082329
Pb      15.30095      0.28401     13.10107        -0.215079     -0.354001     -0.485530
Pb       3.89423      7.73138      4.36161         0.155852     -0.194347     -0.707192
Pb       3.78890      7.78945      0.00077         0.926264      0.016469     -0.306650
Pb      15.20096      7.69884      4.29675        -0.157899      0.169262     -0.133360
Pb       0.00869      7.63136     17.33468        -0.118923     -0.215197      0.628759
Pb       3.69941      7.75568      8.54805         0.858675     -0.263395      0.460371
Pb      15.16470      8.07800      8.65193         0.267688     -0.205114     -0.281524
Pb       3.91916      7.81288     12.92263        -0.149704     -0.063595      0.398592
Pb      15.34881      7.94140     13.06298         0.384078      0.506533     -0.609723
Pb       3.88640     11.51958      4.27436        -0.083611      0.487242     -0.369853
Pb       3.84427     11.56610     17.42227         0.277860     -0.054859     -0.368162
Pb       0.02860     11.50647      4.27557        -0.133592      0.307619     -0.235480
Pb       0.16928     11.47462      0.05229        -0.418446      0.274519     -0.648130
Pb       3.62118     11.54657      8.62967         0.509212     -0.044627     -0.065005
Pb      15.20806     11.77413      8.52127         0.553401      0.147488      0.623638
Pb       3.90151     11.49220     12.97347        -0.521458      0.027370      0.487866
Pb      15.34735     11.63027     13.05649        -0.001842      0.339062     -0.740323
Pb       7.54096      3.75162      4.35211        -0.027119      0.592163      0.048943
Pb       7.51736      3.98655      0.00950         0.727126     -0.171814      0.246593
Pb       7.43780      0.12637      4.42271         0.364939      0.188805     -0.409984
Pb       7.66634      0.16063     17.42918         0.037735      0.046605      0.257323
Pb       7.66698      3.99685      8.63004         0.029969      0.168943      0.371419
Pb       7.72112      0.15790      8.78274        -0.123328     -0.225844     -0.256123
Pb       7.71726      3.85392     13.02215         0.194966      0.428945     -0.113712
Pb       7.64920     15.23785     13.18630        -0.042232      0.504225     -0.708819
Pb       7.66518      7.67859      4.43697        -0.156934     -0.292336     -1.032306
Pb       7.76242      7.77055      0.22936        -0.498117     -0.117786     -0.772067
Pb       7.76465      7.94280      8.58307        -0.453991     -0.405383     -0.016419
Pb       7.59738      7.79996     13.04055        -0.008174     -0.407121     -0.472922
Pb       7.67272     11.84823      4.49501         0.148632      0.016312     -0.576340
Pb       7.66015     11.54226      0.12248        -0.075283      0.174610     -0.455090
Pb       7.58478     11.72913      8.77616         0.261134      0.174402     -0.740065
Pb       7.72721     11.53350     13.19248        -0.137367     -0.099353     -0.943331
Pb      11.53200      3.97182      4.36677         0.464367      0.216128     -0.538924
Pb      11.40940      3.85345      0.01493        -0.269764      0.036058     -0.534481
Pb      11.56583      0.27530      4.32455        -0.294071     -0.368544     -0.208852
Pb      11.39545     15.31890      0.04890         0.033312      0.376997     -0.753946
Pb      11.51215      3.96422      8.78316        -0.181087      0.121545     -0.439247
Pb      11.62390      0.19321      8.76769        -0.164038      0.174018     -0.340128
Pb      11.44590      3.84923     13.10264         0.296031     -0.144695     -0.297857
Pb      11.55077     15.35352     13.05793         0.557234      0.538103     -0.237221
Pb      11.47684      7.85537      4.24917         0.397948     -0.192974     -0.031359
Pb      11.54724      7.70365      0.04261        -0.091719      0.070833     -0.234345
Pb      11.51920      7.86661      8.56004        -0.120081     -0.310186     -0.170389
Pb      11.38653      7.72501     13.14158        -0.209063      0.075561     -0.520162
Pb      11.64652     11.67913      4.21851        -0.604266      0.328702      0.142637
Pb      11.56629     11.54047      0.02888         0.439668      0.237861     -0.445504
Pb      11.41855     11.66235      8.60366        -0.297336      0.042563     -0.362346
Pb      11.51129     11.53521     13.06893         0.158352      0.157526     -0.384372
Ti       1.78386      1.88167      2.08617         0.703300      1.179250     -0.154794
Ti       1.91797      1.93400     15.33626         0.321351     -1.150677     -0.380617
Ti       1.86106     13.52835      2.35220         0.463630     -0.450036     -0.846109
Ti       1.99666     13.41073     15.22935         0.036813     -0.003109      0.286586
Ti      13.33760      2.08619      2.14840         0.667529      0.423862      0.973167
Ti      13.44473      2.07099     15.42925        -0.955681     -0.856817     -1.689936
Ti      13.39621     13.67106      2.31417         0.062939      0.239013     -1.961241
Ti      13.51471     13.52265     15.38551        -0.099617      0.298879     -0.951481
Ti       1.79214      2.03007      6.84772         0.304114     -0.597937     -1.871604
Ti       1.89675     13.51776      6.71874        -0.583579      0.519524     -1.050553
Ti      13.38950      2.11583      6.67689         0.931666      0.124943     -1.151559
Ti      13.45037     13.71023      6.65062        -0.605140     -0.097059     -0.758020
Ti       1.96683      2.01366     10.99836        -0.149111     -1.207492     -0.120483
Ti       1.94772     13.48133     10.95185        -1.277396     -0.505125     -0.645236
Ti      13.49541      2.08360     11.04004        -1.258232     -0.327913     -0.402068
Ti      13.45260     13.60009     10.89752         0.669298     -0.129082     -0.088211
Ti       1.92015      5.69343      2.25661         0.183434     -0.275163     -0.421454
Ti       2.00742      5.75369     15.34415        -0.163152      0.210507     -0.245658
Ti      13.42119      5.85096      2.25358         0.009350     -0.742274      0.931470
Ti      13.44846      5.87898     15.35961        -0.616745      0.008401     -1.211905
Ti       1.91267      5.79857      6.53955         0.029316     -0.693908      0.895850
Ti      13.36917      5.85991      6.62358         0.330014      0.197385     -1.117712
Ti       1.91158      5.74551     11.08356         0.849894      1.503591     -0.846949
Ti      13.38225      5.90335     11.00939        -0.477380      0.118206     -0.526941
Ti       1.91657      9.53322      2.28201         0.404160      0.542192     -0.267380
Ti       1.94200      9.57037     15.39701         0.600099      0.600623     -1.872240
Ti      13.48229      9.78402      2.29136        -0.507533     -0.412843     -1.158133
Ti      13.49784      9.70146     15.43930        -0.147751      1.225474     -0.394491
Ti       1.92382      9.62488      6.53791        -0.562959      0.500688     -0.087486
Ti      13.43387      9.85749      6.54802         0.589202     -0.866469     -2.140379
Ti       1.89916      9.60668     10.88420        -0.303278     -0.082662     -0.054767
Ti      13.38171      9.77475     10.96725         0.542945      0.119958     -0.799692
Ti       5.64605      2.07955      2.20411         0.088766     -1.099148      0.008205
Ti       5.82354      2.07859     15.41295        -0.449672     -0.891563     -0.155977
Ti       5.67208     13.62820      2.32054         0.082903     -0.289377     -0.102336
Ti       5.82121     13.55290     15.38264        -1.288787     -0.051754     -0.736307
Ti       5.74725      1.95719      6.82381        -1.184117      0.591189     -1.420847
Ti       5.65541     13.55919      6.72391         0.794311     -0.429227     -1.159482
Ti       5.79885      1.95424     11.00646        -0.475987      0.123215     -0.715909
Ti       5.69704     13.48177     11.06604         0.986060      0.251857     -1.191008
Ti       5.73554      5.82113      2.26245         0.440105     -0.039584     -1.250646
Ti       5.85023      5.88912     15.37751        -0.070658      0.724069     -0.233097
Ti       5.82778      5.87164      6.60896        -0.545165     -0.683178     -0.449955
Ti       5.77575      5.77504     11.05569         0.923132      1.470757     -1.818020
Ti       5.77815      9.69457      2.33246         0.596041      0.305377     -1.736934
Ti       5.82960      9.65853     15.42469        -1.043019     -0.368663     -0.802223
Ti       5.73477      9.70849      6.56529         0.057419      0.288988     -0.333358
Ti       5.76313      9.70943     10.98659        -0.609064     -1.881006     -0.960348
Ti       9.51557      2.08921      2.37301        -0.472254     -1.235054     -2.177751
Ti       9.54424      2.04445     15.34975         0.663465     -0.490789     -0.797562
Ti       9.51893     13.63950      2.35700        -0.048048      0.255998      0.259380
Ti       9.57820     13.51812     15.39502         0.396057      0.428208      1.834418
Ti       9.55809      1.97558      6.65755        -0.187694      1.191538     -0.013114
Ti       9.60000     13.64075      6.59534        -0.655193     -0.736312     -1.556067
Ti       9.52683      1.91057     11.13090         1.177112      0.838193     -0.760404
Ti       9.64334     13.50501     10.95236        -0.326074     -0.535212     -0.280430
Ti       9.62329      5.84304      2.33014        -0.694769      0.203921      0.147851
Ti       9.59301      5.89062     15.40132        -0.101249     -0.401122     -0.104532
Ti       9.57558      5.83884      6.53172         0.725630     -0.367816     -0.218464
Ti       9.64356      5.82409     10.96649        -0.727997     -0.186607     -0.514379
Ti       9.62307      9.79513      2.32926        -0.369034     -0.044372      0.020381
Ti       9.67230      9.67165     15.40995        -0.247519     -0.049344     -1.281158
Ti       9.60748      9.73783      6.45148        -0.204299      0.900880      0.033878
Ti       9.58787      9.72131     11.02498         0.131905      0.230459     -1.069565
O       1.86220      1.86601      0.26030         0.011055      0.123451      1.178811
O       1.84892      1.86659     13.49436         0.101552      0.101376      1.034494
O       1.93849     13.46156      0.50757        -0.143700     -0.068120      1.585972
O       2.04448     13.50160     13.45741        -0.322929     -0.309572      0.200032
O      13.28970      2.15621      0.36247         0.194371     -0.228930     -0.026219
O      13.54816      2.01043     13.55225         0.170192     -0.009284      1.143285
O      13.32915     13.60948      0.41627         0.624092      0.199846      1.455320
O      13.61768     13.60403     13.49960        -0.374895     -0.187204      2.214473
O       1.78122      1.89370      4.94712         0.131381      0.078384      1.426004
O       1.79666     13.74063      4.86130         0.165619     -0.594624      1.120942
O      13.57816      2.05520      4.79384        -0.835859      0.306334      2.130918
O      13.49157     13.72895      4.83690        -0.094316     -0.096032      0.657494
O       2.06122      2.03730      9.18959        -0.385177     -0.141913      0.652323
O       1.91538     13.46207      9.07516         0.451236     -0.031001      1.417252
O      13.26067      2.01460      9.23203         0.068074      0.148619      0.609321
O      13.42007     13.62211      9.03343        -0.441977     -0.267199      1.240795
O       1.97631      5.62177      0.46197        -0.094978      0.172617      0.187352
O       2.00363      5.72175     13.53572        -0.450808      0.152703      1.218564
O      13.27122      5.68769      0.51950         0.157959      0.498977     -0.534720
O      13.49330      5.97726     13.50555         0.087072      0.132418      1.523427
O       2.00650      5.49563      4.82531        -0.370560      1.099338     -0.328509
O      13.43704      5.82863      4.75925        -0.069864      0.318349      1.295602
O       1.81158      5.74914      9.26727         0.442727     -0.034323      0.455628
O      13.31003      5.78688      9.13688         0.284731      0.251145      1.463010
O       2.03337      9.65880      0.48218        -0.204376     -0.254345      0.759381
O       1.79035      9.53990     13.53545        -0.051901     -0.082120      1.440086
O      13.36947      9.74820      0.40025        -0.060880      0.323790      1.849015
O      13.63175      9.80613     13.59582        -0.199290     -0.313650      0.381998
O       1.83205      9.65414      4.77869         0.292211     -0.047633     -0.644953
O      13.48062      9.76246      4.59782         0.330179      0.191979      1.878862
O       2.02496      9.55680      9.05730        -0.331023      0.215892      0.506132
O      13.36141      9.80393      9.11115         0.224072     -0.130855      0.782158
O       5.81066      2.05988      0.42875        -0.316076      0.089358      0.334608
O       5.91596      2.10700     13.60777        -0.256854     -0.178872      0.487272
O       5.68799     13.59989      0.54887        -0.103782     -0.115447     -0.032570
O       5.76792     13.49096     13.49028         0.608848     -0.012141      1.445436
O       5.84844      1.96863      4.95208        -0.334689      0.167877      1.326419
O       5.70776     13.56755      4.84398         0.032862     -0.154405      1.288141
O       5.80463      1.97200      9.19053        -0.368419     -0.110805      0.787446
O       5.78612     13.44407      9.20343        -0.269566     -0.010461      1.176905
O       5.75070      5.86851      0.31129         0.100457     -0.154455      2.550877
O       5.87357      5.89888     13.47681        -0.180410     -0.253739      1.961060
O       5.88128      5.84630      4.75099        -0.456827      0.325908      1.793824
O       5.76043      5.82291      9.23562         0.142504     -0.043589      0.809195
O       5.70602      9.54983      0.38454         0.421150      0.409717      1.927212
O       5.78466      9.54403     13.49246         0.171208      0.775919      1.648601
O       5.76807      9.68137      4.73853        -0.141660     -0.237711      0.689683
O       5.57988      9.50453      9.19295         0.474561      0.769443      0.512767
O       9.50537      1.95503      0.48148         0.487458      0.467294      1.902976
O       9.43504      2.09866     13.43161         0.310300     -0.412523      1.605626
O       9.39555     13.69951      0.52817         0.772751     -0.512745      0.725771
O       9.43860     13.53968     13.67546         0.245805     -0.305512     -0.761606
O       9.29913      1.98021      4.89606         0.857948      0.216530      0.440011
O       9.44373     13.61969      4.67785         0.415276     -0.120455      2.310409
O       9.58935      1.82532      9.29272         0.124027      0.168015      1.032916
O       9.67048     13.34903      9.14742        -0.139986      0.549005      0.342077
O       9.69677      5.91193      0.51162        -0.291256      0.060163      0.802922
O       9.55155      5.98855     13.60948         0.334935     -0.124583      0.645449
O       9.56428      5.80905      4.70717        -0.065650      0.316851      1.076362
O       9.80659      5.77158      9.14964        -0.488112      0.791326      1.559789
O       9.64472      9.76047      0.48279        -0.137918     -0.066080      0.697491
O       9.67228      9.63804     13.49068        -0.268201      0.521512      1.578682
O       9.61958      9.82663      4.66624        -0.107242     -0.452176      1.194074
O       9.67992      9.75616      9.16808         0.001639     -0.172474      0.909710
O       3.76479      2.09106      2.52330        -0.023562     -0.305142      0.056740
O       3.83516      1.92751     15.69487        -0.174948      0.198783     -0.333451
O       3.74017     13.61634      2.79965        -0.143919     -0.098581     -0.056412
O       3.87087     13.50498     15.78925        -0.016218      0.051430     -0.162097
O      15.29930      2.32659      2.43588         0.293818     -1.030543     -0.061867
O      15.34912      2.10802     15.79171         0.086693      0.168956     -0.242173
O      15.24308     13.65210      2.69552         2.060791      0.097423     -0.231381
O       0.14773     13.23560     15.76203        -1.234476      0.173106     -0.050976
O       3.80849      2.07385      7.13999         0.331965     -0.440321     -0.067020
O       3.76180     13.53657      6.89487         0.406802     -0.013718      0.424962
O      15.26993      2.13296      7.13076         0.071991      0.150713      0.110523
O      15.30032     13.72144      7.13214         0.613140     -0.226955     -0.437400
O       3.89501      1.90377     11.42924        -0.115566     -0.167501      0.057140
O       3.87237     13.48298     11.37536        -0.242307     -0.270028     -0.234046
O       0.00044      1.94760     11.23428         1.242256     -0.100246      0.417711
O      15.29312     13.62825     11.18551         1.319476      0.510976      0.172629
O       3.85908      5.64309      2.67582        -0.550716      0.739824     -0.037978
O       3.91520      5.65599     15.78046        -1.463234      0.755181     -1.007859
O       0.00074      5.63659      2.56746        -0.557903      0.529541      0.239154
O      15.29741      5.92185     15.86941         0.540264     -0.056159     -0.792910
O       3.80848      5.77426      7.04372        -0.043298      0.158603     -0.516289
O      15.31386      5.88561      6.94939         0.493460      0.281445      0.277233
O       3.94089      5.87143     11.42844        -1.754718     -0.302059      0.166756
O       0.02309      5.69912     11.31883        -0.425927     -0.349541      0.293164
O       3.98511      9.62607      2.68342        -2.610097     -0.821599      0.402380
O       3.83489      9.53673     15.78126        -0.088032     -0.155769     -0.181474
O      15.35013      9.80466      2.42918         0.754994      0.207663      0.469327
O       0.03336      9.45041     15.84595        -0.044053      1.006007      0.036475
O       3.82202      9.68117      6.90537        -0.039112     -0.163973     -0.086301
O      15.34281      9.85066      6.92350         0.234290     -0.345339      0.425368
O       3.72067      9.63888     11.50507         0.912135      0.247572     -0.707467
O      15.35182      9.63208     11.24651        -0.555882      0.339093      0.246323
O       7.60852      2.03308      2.73482         0.211699     -0.011958     -0.322659
O       7.71033      2.00481     15.89147        -0.747232      0.268577     -0.736559
O       7.57994     13.46999      2.68768         0.334482      0.315073     -0.070026
O       7.65723     13.56863     15.83175        -0.090515     -0.628458     -0.441163
O       7.57116      1.97093      7.24227         1.396815      0.072312     -0.321059
O       7.66346     13.50553      7.00854        -0.189357      0.033866      0.150782
O       7.66075      2.09302     11.33561         0.155244     -0.412275      0.120095
O       7.78595     13.40864     11.25715        -1.420235      0.216237      0.608803
O       7.61339      5.79542      2.65431         1.027914      0.600025     -0.487847
O       7.73087      5.82718     15.88880        -0.313132      0.659957     -0.486415
O       7.74258      5.87761      7.09814        -0.727966      0.549443     -0.408222
O       7.70670      5.91329     11.39397         0.685053     -0.076044     -0.279499
O       7.67332      9.81857      2.52148         0.329477     -0.451409      0.083025
O       7.65226      9.71784     15.73029         0.767731     -0.276904      0.123647
O       7.65529      9.75946      6.86181         0.623883     -0.763604      0.256103
O       7.65993      9.84293     11.19680         0.543318     -0.468688      0.370956
O      11.48125      2.07562      2.74340        -0.225508      0.219193     -0.116213
O      11.51757      1.90742     15.70579        -0.555454      0.504452     -0.139848
O      11.54775     13.65792      2.55928        -1.090665      0.017113      0.525919
O      11.55657     13.64072     15.70878        -0.806832     -0.355380     -0.237995
O      11.45701      1.90003      6.93277        -0.070592      0.443312     -0.046905
O      11.46233     13.58400      6.88406         0.371211      0.173367      0.195948
O      11.59312      2.10641     11.56813        -1.207559     -0.512212     -0.321764
O      11.57546     13.58683     11.40645        -0.229264     -0.285898      0.044577
O      11.49452      5.94927      2.73108         0.283718     -0.592634     -0.093919
O      11.48881      5.91120     15.84701         0.700390      0.013808     -0.514814
O      11.51462      5.86232      6.97180        -0.487770      0.398265     -0.256651
O      11.48423      5.66884     11.52271         0.597802      1.296936     -0.384494
O      11.54633      9.78709      2.67605         0.075487      0.117979     -0.284387
O      11.56293      9.72859     15.66255        -0.301620      0.051258      0.125431
O      11.62695      9.73974      6.84658        -1.794542     -0.004519      0.102855
O      11.52399      9.83929     11.43594         0.819184     -0.156862     -0.055638
O       1.85484      3.84418      2.72650         0.535307     -0.599627     -0.516386
O       1.91979      3.78310     15.76950        -0.313298      1.344172     -0.591256
O       1.87541      0.11484      2.58855        -0.323018     -0.750164      0.041780
O       1.83315     15.27854     15.65897         0.238730      0.751787      0.081528
O      13.39790      3.90209      2.69197        -0.789957      1.400696     -0.077336
O      13.34631      3.96828     15.50703         0.339405      0.890728      0.634767
O      13.42061      0.26348      2.76557         0.103623     -0.385252     -0.809980
O      13.54539     15.49326     15.74971         0.216825     -0.677806     -0.203055
O       1.86581      3.86178      7.05821        -0.030296      1.031167      0.371320
O       1.85284      0.08038      7.29119         0.483546     -0.261743     -0.591288
O      13.23813      3.96440      7.05407         0.443659     -0.050377     -0.288820
O      13.46852     15.55823      7.08873        -0.379226     -0.034189     -0.157209
O       2.10908      3.79147     11.38057        -0.563215      1.632197      0.265419
O       2.00315     15.31990     11.28603        -0.220628      0.882656     -0.022566
O      13.46182      4.00207     11.48481         0.297345      0.321488     -0.209486
O      13.42792     15.52511     11.40013         0.025907     -0.175659     -0.096922
O       1.87693      7.61952      2.60869         0.470949      0.592965      0.308068
O       1.80984      7.69313     15.85396         0.957102     -2.123604     -0.515840
O      13.42055      7.80535      2.65225         0.220647      0.251815     -0.221105
O      13.46912      7.88988     15.85794        -0.248656     -1.784628     -0.333218
O       1.97346      7.76285      6.78733        -0.420609     -1.218176      0.162538
O      13.47603      7.82228      6.94971        -0.053328      0.360378      0.168872
O       1.92551      7.71029     11.28660         0.196749     -1.159803      0.310029
O      13.34565      7.81167     11.10333        -0.056611     -0.221398      0.665896
O       2.02903     11.50218      2.66307        -0.751422      0.294529      0.094451
O       2.08115     11.42704     15.67696        -0.614554      0.946663      0.252783
O      13.45724     11.77523      2.65825        -0.077205     -1.133184     -0.087708
O      13.45659     11.64215     15.85774         0.072669      0.406259     -0.381117
O       1.91020     11.62277      6.97955        -0.306886     -0.661214     -0.170305
O      13.50936     11.70107      6.88953        -0.422291      0.344859     -0.094693
O       1.85383     11.52345     11.19330         0.312708     -0.097877      0.358162
O      13.58958     11.68845     11.36998        -0.766399     -0.619460     -0.154182
O       5.75453      3.92085      2.71765         0.099868     -0.331063     -0.291290
O       5.86934      3.95493     15.79888        -0.400160     -0.133187     -0.630448
O       5.71114      0.16297      2.72157        -0.135383     -0.169270     -0.184439
O       5.73560      0.11842     15.71421         0.349082     -0.670016     -0.248655
O       5.82452      4.01687      7.04002        -0.063183     -0.737691      0.092137
O       5.64431     15.42503      7.03333         0.282935     -0.101298      0.271784
O       5.64718      3.90646     11.38880         0.791525     -0.683182      0.000858
O       5.83518     15.43125     11.45052         0.098406     -0.526946     -0.143177
O       5.74391      7.64299      2.72153         0.070715      1.260453     -0.086130
O       5.70082      7.75532     15.81217         0.542886     -0.905127     -0.596788
O       5.75116      7.72352      6.97294         0.083393      0.904150     -0.186812
O       5.76394      7.79446     11.40937         0.229211      0.252681      0.048329
O       5.57547     11.63332      2.56295         0.367093     -0.278992      0.199387
O       5.67791     11.56494     15.74414         0.416595      0.514919     -0.034832
O       5.69506     11.57886      6.99010         0.008658      0.138712      0.083153
O       5.69887     11.52084     11.46072         0.102533      1.301254     -0.159851
O       9.56002      3.95771      2.64626         0.472929      0.236698      0.106550
O       9.54401      3.89553     15.69639         0.505155      0.679156      0.044480
O       9.62267      0.20280      2.75351        -0.248086     -0.946302     -0.294556
O       9.47755      0.15240     15.79875         0.417347     -1.173948     -0.528514
O       9.54151      4.00224      7.02772         0.213564     -1.413287     -0.166624
O       9.51552      0.15670      7.05866        -0.171178     -1.165775      0.003395
O       9.57337      3.93705     11.31108        -0.064201     -0.105984      0.266207
O       9.61593     15.35730     11.50687        -0.188205      0.969963     -0.169845
O       9.66725      7.83483      2.73297        -0.824637      0.159228     -0.444813
O       9.64919      7.81397     15.76808        -0.281676     -0.318516      0.321019
O       9.62052      7.74068      6.90404        -0.063095      1.642602     -0.051588
O       9.71969      7.87719     11.42700        -0.172172     -0.970653     -0.503985
O       9.63701     11.70443      2.75861         0.082017     -0.079727     -0.702816
O       9.57765     11.50997     15.76207        -0.058735      1.960084      0.031809
O       9.59193     11.63849      6.92049         0.270943     -0.546325     -0.183147
O       9.68100     11.66158     11.42741         0.124644     -0.600103      0.536656
