  # total energy = -7875.77746764 
CRSYTAL
PRIMVEC
    15.3600000000000000    0.2300000000000000    0.0000000000000000
     0.0000000000000000   15.3600000000000000    0.0000000000000000
     0.0000000000000000    0.0000000000000000    17.440000000000000
PRESSURE
1.89259 1.92003 2.10235 -0.105923 0.085058 -1.51402
PRIMCOORD
320 1
Pb       3.84712      3.84532      4.25737        -0.284041      0.112614     -0.201832
Pb       3.72387      3.95771     17.33341         0.231086     -0.247993     -0.414532
Pb       3.70181     15.40911      4.53396         0.107526     -0.495471     -0.936406
Pb       3.69652     15.32414     17.40414         0.348531      0.177107     -0.363968
Pb       0.14193      3.76298      4.23746        -0.591902      0.019394     -0.187977
Pb       0.01573      3.72137     17.28371        -0.193791      0.421249      0.042267
Pb      15.27341      0.32698      4.43643        -0.112042     -0.623345     -0.932581
Pb      15.26367     15.48835     17.31207         0.577126      0.173981      0.037558
Pb       3.85475      3.95140      8.66189        -0.068686      0.061509     -0.503452
Pb       3.70344      0.18162      8.85402         0.512055     -0.623608     -0.427750
Pb       0.08898      4.23633      8.83273        -0.459656     -1.058099     -0.095645
Pb       0.05590     15.30812      8.73678        -0.427792      0.180093      0.318776
Pb       4.07464      4.00934     13.04342        -0.918125     -0.379334      0.282515
Pb       3.82471      0.20843     13.12962         0.091715     -0.312773     -0.461666
Pb      15.33022      4.12908     13.01597         0.352788      0.117362     -0.116724
Pb      15.31112      0.29614     13.10419         0.663672     -0.009071     -0.270031
Pb       3.89838      7.73671      4.36948        -0.360352     -0.007933     -0.108458
Pb       3.79006      7.80848     17.41879        -0.363443      0.050783     -0.677817
Pb      15.17770      7.69477      4.30231         0.769090      0.234402     -0.319896
Pb      15.35080      7.89102     17.32535         0.235148     -0.690320     -0.093663
Pb       3.68476      7.71922      8.54630         0.508770      0.310316     -0.303334
Pb      15.16058      8.07554      8.68331         0.018618     -0.578246     -0.651742
Pb       3.90843      7.79208     12.90287        -0.813841      0.030968      0.610521
Pb       0.00656      7.70712     13.04809        -0.368584     -0.484486     -0.340924
Pb       3.88524     11.52578      4.23407        -0.481862      0.177270     -0.193973
Pb       3.82202     11.59799     17.41910         0.312672     -0.286942     -0.635169
Pb       0.03564     11.53967      4.25615         0.383266      0.160481     -0.252777
Pb       0.18307     11.48688      0.08535        -0.322772     -0.011516     -0.645995
Pb       3.61042     11.55336      8.61112         0.562489      0.178311     -0.095051
Pb      15.22807     11.77413      8.51832         0.253992      0.201154     -0.054896
Pb       3.87996     11.49659     12.95025         0.065773      0.143130     -0.294186
Pb       0.01630     11.38023     13.06463        -0.533628     -0.038650     -0.495842
Pb       7.53319      3.75514      4.35432         0.526530      0.116879      0.015513
Pb       7.51339      3.99087     17.43177         0.494271     -0.313464     -0.198109
Pb       7.42184     15.46602      4.42604         0.360174      0.382765     -0.198969
Pb       7.67889      0.18485     17.42871        -0.182139     -0.372946     -0.373451
Pb       7.63093      4.02603      8.61427         0.341554     -0.540324     -0.015114
Pb       7.70058      0.13358      8.77825        -0.005018     -0.156587     -0.434242
Pb       7.70973      3.85013     13.01822        -0.342924      0.144317     -0.338740
Pb       7.63496     15.21405     13.18694         0.295032      0.042632     -0.574665
Pb       7.70878      7.65011      4.44485        -0.220499      1.002872     -0.502390
Pb       7.77062      7.78831      0.23085         0.832715      0.145098     -0.672297
Pb       7.80910      7.92735      8.59111        -0.237958     -0.078750     -0.724886
Pb       7.59340      7.81528     13.02619         0.922364     -0.715198      0.006722
Pb       7.69350     11.89294      4.50512        -0.067675     -0.818515     -1.012517
Pb       7.66442     11.52771      0.11954         0.525261      0.367265     -0.937735
Pb       7.57390     11.75073      8.81034        -0.164856      0.076956     -0.649832
Pb       7.73864     11.55745     13.22087         0.254798      0.636534     -0.490021
Pb      11.51795      3.99662      4.40786        -0.175932     -0.053884     -0.787068
Pb      11.42543      3.86013      0.03936         0.077817      0.660282     -0.568706
Pb      11.59045      0.28037      4.29489        -0.231139     -0.321372      0.052993
Pb      11.37927     15.28846      0.07543         0.050191      0.266941     -0.803564
Pb      11.50246      3.97080      8.78077         0.081540     -0.350541     -0.429678
Pb      11.61768      0.18508      8.77138        -0.324629      0.206181     -0.437484
Pb      11.46160      3.88520     13.11198         0.522538      0.197917     -0.509748
Pb      11.58283     15.32964     13.03060        -0.585934      0.036890     -0.224196
Pb      11.43382      7.88961      4.23483        -0.018990     -0.073057     -0.498258
Pb      11.56028      7.69587      0.03304        -0.409562     -0.210944     -0.371189
Pb      11.51403      7.84287      8.56168         0.119960      0.307947     -0.296866
Pb      11.40655      7.71578     13.14136         0.215256     -0.081253     -0.654281
Pb      11.67336     11.64178      4.21634        -0.723402      0.143206     -0.081045
Pb      11.58067     11.56955      0.00205        -0.458352      0.226229     -0.711340
Pb      11.38566     11.66769      8.55080         0.302934      0.076748     -0.452367
Pb      11.52618     11.54444     13.05515        -0.087655      0.426571     -0.063281
Ti       1.82423      1.86685      2.13692         0.343560     -0.441145      0.266473
Ti       1.96154      1.85834     15.39687        -0.967580      0.830380      0.272729
Ti       1.84237     13.45251      2.26117         0.996907      0.010736      1.807544
Ti       2.03161     13.39888     15.23817        -1.136924      0.309557      0.014436
Ti      13.34445      2.15195      2.17322         0.135800     -0.583745     -0.606106
Ti      13.36875      1.99877     15.45767         0.287591      0.440657      0.040743
Ti      13.36218     13.60747      2.22525         0.704404      0.078100      2.442816
Ti      13.52630     13.54965     15.38209        -0.682483     -0.665141      0.856804
Ti       1.78879      1.96255      6.82192         0.550978      1.214910      1.434931
Ti       1.85426     13.58362      6.70533         0.493968     -1.592838      0.738763
Ti      13.44625      2.11309      6.72617        -0.871988      0.318508      1.510627
Ti      13.42296     13.70199      6.57945        -0.820146     -0.478907      0.018097
Ti       2.02868      2.05120     10.97142        -1.294552     -0.185947      1.009963
Ti       1.86928     13.48763     10.98056         1.394605      0.572286      0.069478
Ti      13.45172      2.05022     11.08723        -0.028772      0.719709     -0.883934
Ti      13.52649     13.61092     10.94448        -1.039198     -0.975363      0.253532
Ti       1.97095      5.68376      2.31663        -1.185699      0.916635     -0.723158
Ti       1.98953      5.72697     15.41562        -0.737510     -0.208521     -0.641991
Ti      13.40364      5.87989      2.28608        -0.815844     -0.203514     -1.099457
Ti      13.47397      5.88064     15.37610        -0.381797      0.300209      1.262736
Ti       1.91476      5.72709      6.59821        -0.115831      0.925323     -1.242308
Ti      13.37372      5.83567      6.60985         0.849525      0.639710      1.757630
Ti       1.94738      5.86908     11.04300        -1.544740     -1.654152      0.123128
Ti      13.30239      5.87138     10.97591         1.325791      1.464474      1.971318
Ti       1.91745      9.50609      2.33515        -0.423164      0.362546     -0.245734
Ti       1.85013      9.62242     15.38304         1.377142     -1.177460      1.558877
Ti      13.52865      9.74526      2.19570        -0.796608     -0.196823      1.960345
Ti      13.45792      9.78098     15.40658        -0.122650     -0.386232      0.084619
Ti       1.87923      9.63063      6.58598         0.390204      0.099165     -0.865792
Ti      13.49360      9.87366      6.46265        -1.174318     -1.079569      3.494895
Ti       1.82549      9.61508     10.79976         0.611280      0.038145      0.683362
Ti      13.32340      9.79423     10.90982         0.681995     -1.374730      0.843074
Ti       5.65905      2.04641      2.23701         0.010911     -0.657925     -0.732059
Ti       5.78614      2.01638     15.40003        -0.301873     -0.289795     -0.109941
Ti       5.64023     13.63940      2.29320        -0.037044     -0.734105     -0.046492
Ti       5.84155     13.53763     15.46086        -0.376174     -0.584263      1.166327
Ti       5.71574      1.95520      6.80751         0.095714     -0.098083      1.202194
Ti       5.66765     13.49614      6.68592        -0.144430      0.202116      1.220424
Ti       5.75211      1.93649     10.93911         0.801935     -0.203192      1.048855
Ti       5.72707     13.44438     11.07772         0.038290      0.372160     -0.098150
Ti       5.72479      5.86657      2.24900         0.086604      0.089341      2.434096
Ti       5.91868      5.92236     15.40869        -1.474449     -1.149267      0.169403
Ti       5.80455      5.89147      6.66500        -0.524920      0.139551      0.544933
Ti       5.75529      5.81017     11.01406         0.517488     -0.405821      0.283063
Ti       5.78736      9.67717      2.31262         0.393955      0.248851      2.788567
Ti       5.80240      9.65737     15.37500        -0.007426      0.297964      1.509673
Ti       5.70909      9.71754      6.55399         0.942977      0.030258      0.673297
Ti       5.78386      9.61151     10.98372        -0.893160      1.794862     -0.368357
Ti       9.47300      2.04021      2.34106         0.544525      0.477961      2.069788
Ti       9.57333      2.03219     15.27497        -0.175531     -0.560423      2.621153
Ti       9.53748     13.69945      2.38179        -0.216923     -1.922979     -0.986975
Ti       9.60390     13.60507     15.49575         0.049709     -1.733695     -1.893657
Ti       9.57922      2.00979      6.67497        -0.374261     -0.264161     -0.450492
Ti       9.55632     13.60164      6.57824         0.699068     -0.316800      2.211076
Ti       9.56511      1.95187     11.10592         0.065362     -0.205520     -0.312596
Ti       9.63308     13.49698     10.98490        -0.553772     -0.185949      1.235413
Ti       9.47326      5.86312      2.43834         2.445478      0.201617     -1.554050
Ti       9.61594      5.84150     15.47567         0.794028      1.406977     -0.299904
Ti       9.63542      5.81792      6.58911        -0.764833      0.477025      0.589232
Ti       9.57344      5.76969     10.96989         0.104875      1.349960      0.846480
Ti       9.60067      9.87039      2.33410        -0.194430     -0.838753      0.689180
Ti       9.68777      9.70766     15.37345        -0.966237     -0.042682      2.146034
Ti       9.62193      9.77651      6.53282        -0.392833     -0.266765     -0.466713
Ti       9.55367      9.70650     10.97063         0.910665     -0.376973      0.978505
O       1.79790      1.86617      0.40916         0.436713      0.054706     -1.007139
O       1.95628      1.90653     13.65249        -0.077346     -0.288009     -0.990878
O       1.93924     13.42787      0.54453         0.269588     -0.290783     -2.096841
O       2.03191     13.46140     13.45060        -0.427440     -0.194875      0.212206
O      13.37797      2.07202      0.35854        -0.541808      0.259326      0.499251
O      13.51079      1.85745     13.70287        -0.286374     -0.031275     -1.529027
O      13.36815     13.58574      0.54448         0.186659      0.049302     -2.296824
O      13.65819     13.58771     13.66490        -0.203143      0.163304     -2.352200
O       1.79071      1.86628      5.10566         0.151236      0.112910     -2.194819
O       1.77857     13.62874      4.99914         0.090693      0.518554     -2.020110
O      13.52587      2.13604      5.03837         0.115027     -0.095096     -2.869146
O      13.58566     13.76034      4.84155        -0.189619     -0.082688     -1.221384
O       2.00019      2.00507      9.20450         0.349127      0.202049     -0.730447
O       1.86029     13.51701      9.20601         0.048740     -0.030901     -1.021953
O      13.17428      2.06837      9.34077         0.086981      0.163002     -0.850571
O      13.46966     13.56731      9.20420        -0.277915      0.041775     -1.074102
O       1.99867      5.67090      0.54746        -0.022652      0.107370     -0.110576
O       1.90730      5.76379     13.67771        -0.315657     -0.066446     -1.890639
O      13.27953      5.74183      0.50026         0.004183      0.412572      0.532066
O      13.45424      5.91814     13.64944        -0.099358      0.294726     -1.428257
O       1.97149      5.57573      4.76625        -0.468840      0.047850      0.177423
O      13.40747      5.74317      4.90804         0.467328      0.369642     -1.753123
O       1.78495      5.76290      9.24880         0.687384      0.525938     -0.306421
O      13.32417      5.91084      9.25150         0.086100     -0.448491     -2.051915
O       1.96597      9.57013      0.52702         0.344852      0.142228     -0.608458
O       1.81020      9.44857     13.68842        -0.080252      0.369189     -1.892338
O      13.32653      9.79363      0.51411         0.127958     -0.196632     -2.341597
O      13.60929      9.83068     13.65427        -0.028252     -0.122859     -1.056451
O       1.77834      9.65531      4.79843         0.191158     -0.162674      0.251472
O      13.51721      9.79388      4.79453         0.241845     -0.093024     -2.625558
O       1.95080      9.55591      9.00587        -0.180486     -0.133097      0.358038
O      13.38240      9.69841      9.14531        -0.051672      0.412835     -0.668640
O       5.78500      2.04646      0.48941         0.194391     -0.430439     -0.923487
O       5.75335      2.09024     13.62993        -0.100823     -0.167829     -0.206822
O       5.64414     13.68911      0.51605        -0.183595     -0.191718      0.039716
O       5.81860     13.52717     13.74442         0.003856     -0.283064     -2.344318
O       5.87705      1.93901      5.06678        -0.169105      0.350449     -1.807382
O       5.63634     13.52849      4.94659         0.647543      0.044975     -1.838843
O       5.76826      1.87681      9.17615        -0.555407      0.303049     -0.404510
O       5.79396     13.39177      9.33818         0.071549     -0.089747     -1.395131
O       5.91921      5.97164      0.59275        -0.353348     -0.284881     -3.350620
O       5.87566      5.83695     13.67987        -0.094958      0.109931     -2.388170
O       5.80334      5.87041      4.94737         0.030188     -0.158263     -1.924851
O       5.77824      5.83020      9.31607         0.005167      0.069565     -1.806126
O       5.74094      9.59694      0.62864        -0.066518     -0.049058     -2.988644
O       5.69613      9.64894     13.66102         0.192322     -0.056970     -1.837174
O       5.74042      9.61401      4.80144        -0.229231      0.251438     -0.780435
O       5.55524      9.67533      9.27309         0.639239      0.050142     -0.719548
O       9.48827      1.99165      0.65346         0.138194     -0.139549     -2.646433
O       9.52393      2.01123     13.58632         0.056219      0.238760     -2.265912
O       9.53919     13.54237      0.58916         0.123807      0.800935     -0.657437
O       9.40899     13.49630     13.65029         0.328547      0.453095      0.159713
O       9.34986      2.06125      4.91346        -0.012830     -0.290207     -0.375198
O       9.57392     13.59305      4.87767        -0.763068     -0.238130     -2.554083
O       9.71176      1.94438      9.34636         0.067962     -0.154146     -0.997560
O       9.57931     13.35808      9.22247         0.223268      0.348240     -0.326873
O       9.62525      6.03989      0.62447        -0.228913     -0.778331     -0.440766
O       9.59967      6.04383     13.71853         0.257221     -0.632375     -0.986265
O       9.58666      5.85361      4.84444        -0.357456      0.183595     -1.108807
O       9.68628      5.92289      9.24423        -0.218023     -0.251641     -1.338343
O       9.55932      9.73422      0.57362        -0.019690      0.417339     -1.125774
O       9.68403      9.74126     13.66579        -0.140245     -0.116151     -2.128442
O       9.72976      9.73857      4.77236        -0.687909      0.239512     -0.828857
O       9.70494      9.62411      9.23404        -0.125034      0.394831     -0.909890
O       3.77795      2.02892      2.45823        -0.215288     -0.216553      0.881473
O       3.78667      1.96886     15.75992         1.060469     -0.265704      0.311480
O       3.76360     13.51966      2.84042         0.461107      0.321822     -0.003273
O       3.83768     13.47174     15.76254        -0.342488     -0.136055      0.340457
O      15.25458      2.17633      2.40651        -0.015409      0.020022      1.078313
O       0.00803      1.81406     15.76590        -0.650594      0.286115      0.165299
O       0.05782     13.42823      2.63359        -2.100269     -0.110963      0.193949
O       0.03161     13.27712     15.73559         1.010343      0.318330      0.518161
O       3.79850      2.06940      7.12548         0.342898     -0.365103      0.062030
O       3.77532     13.54786      6.91529        -0.092597     -0.142090      0.807846
O      15.28914      2.19341      7.07526         0.814068     -0.304600      0.800788
O      15.30696     13.64196      6.97919         0.160292      0.662215      0.985388
O       3.88699      1.96167     11.54035        -0.108519     -0.047013     -0.499816
O       3.80668     13.42226     11.20275        -0.252849     -0.053999      0.916817
O       0.10135      1.90822     11.22167        -1.425873     -0.007334      0.826519
O       0.02040     13.47167     11.14634        -0.818216     -0.146020      1.184306
O       3.81958      5.60097      2.58322         0.775293      0.636135      0.650205
O       3.82271      5.69600     15.62364         1.877430     -0.044276      1.050652
O      15.28829      6.00163      2.49056         0.643425     -0.764249      1.121990
O      15.33127      5.95622     15.84999        -0.183632     -0.482620      0.082332
O       3.84454      5.81693      6.86685         0.295850     -0.143810      1.075687
O       0.00994      5.70569      7.03052        -0.602019      0.141262     -0.145521
O       3.77605      5.84067     11.27882         1.961145      0.029752      0.612050
O      15.27610      5.84251     11.40963         0.535154      0.563927     -0.147427
O       3.71164      9.38584      2.76640         2.057641      1.404869     -0.031047
O       3.82325      9.58537     15.69818         0.141332     -0.103571      0.750478
O       0.01394      9.62459      2.36956        -0.141143     -0.287730      0.994572
O      15.34444      9.82534     15.75120         0.737782     -0.311179      0.892172
O       3.82372      9.69608      6.97212        -0.546591     -0.312062      0.048313
O       0.04919      9.59088      6.97418        -1.417560     -0.155585      0.375008
O       3.81347      9.72026     11.35602        -0.382762     -0.807521      0.410550
O      15.34559      9.62520     11.30287         0.053068      0.305471     -0.124089
O       7.58464      2.07903      2.66621        -0.022904     -0.744532      0.610929
O       7.68297      1.84406     15.69750         0.133332      0.708512      0.485843
O       7.56195     13.62388      2.61219         0.073292     -0.427868      0.892164
O       7.68818     13.52683     15.76954        -0.369007      0.283797      0.906854
O       7.69703      1.95486      7.28430        -0.443911      0.158029     -0.136721
O       7.58959     13.46753      7.12870         0.801771     -0.055830     -0.387504
O       7.64229      2.06849     11.29720        -0.225681     -0.023238      0.437743
O       7.68109     13.43966     11.35525         0.458662      0.182116      0.451518
O       7.66024      5.81536      2.50677        -1.026768      0.119822      1.271579
O       7.73865      5.83764     15.68457        -0.254833     -0.149951      1.211380
O       7.68382      5.88112      6.97475         0.698946      0.134835      0.663568
O       7.69665      5.77927     11.39957        -0.603500      0.289529      0.262175
O       7.68979      9.76782      2.67079        -0.622877     -0.007745      0.092723
O       7.74459      9.75912     15.62971        -0.933028      0.000485      0.673756
O       7.67500      9.66208      6.88358         0.022832      0.583424      0.475395
O       7.69396      9.87585     11.26982        -0.359168     -0.925038      0.287999
O      11.42913      2.03987      2.77230         0.830669      0.223998     -0.175310
O      11.41238      1.93334     15.71061         1.133950      0.306451      0.310332
O      11.46728     13.56297      2.57940         1.225906      0.176106      0.508398
O      11.51686     13.54617     15.71093         0.883116      0.466637      0.670667
O      11.46179      1.99496      6.80625         0.164432     -0.088953      1.127708
O      11.49680     13.50263      6.80847         0.171330      0.411008      0.871260
O      11.42270      1.97233     11.47134         1.637609      0.399757      1.004635
O      11.55573     13.49050     11.43745        -0.060219      0.507797      0.001012
O      11.48437      5.86897      2.79793         0.051592      0.539780      0.202816
O      11.54432      5.99264     15.85552        -0.508118     -0.523778     -0.044620
O      11.46787      5.81502      6.93221         0.333968      0.484963      0.438745
O      11.51614      5.85270     11.42848        -1.513321     -0.483772      0.586080
O      11.53912      9.81723      2.71521         0.123609     -0.271104     -0.009950
O      11.57831      9.79210     15.67369        -0.601243     -0.117494      0.565706
O      11.50349      9.75189      6.84490         1.494517     -0.038949      0.570326
O      11.55413      9.79119     11.47820        -1.013351     -0.168766     -0.098780
O       1.86679      3.75702      2.58590        -0.170081      0.276591      0.814979
O       1.84341      3.84301     15.79367         0.209928     -1.266020      0.421457
O       1.88577     15.36011      2.54172         0.104580      1.012684      0.745892
O       1.89492     15.28628     15.65611         0.055466     -0.122539      0.293560
O      13.24701      4.00615      2.67433         0.678218     -0.827308      0.110231
O      13.23404      3.96986     15.45530         0.554862     -0.985912      1.122760
O      13.36944      0.22095      2.61396         0.158508     -0.176627      0.199718
O      13.58675     15.40964     15.74992        -0.932951      1.060370      0.349294
O       1.93621      3.93767      7.04100        -0.028820     -1.118737      0.715813
O       1.91843      0.08633      7.20255        -0.273816      0.074226      0.150346
O      13.33608      3.99251      7.08033        -0.046683      0.437977      0.505928
O      13.43206     15.53387      6.96125        -0.024323      0.396516      0.992360
O       2.03507      3.91865     11.39241        -0.257906     -0.527286      0.119652
O       1.89100      0.07884     11.23437         0.705346     -0.571013      0.472298
O      13.43039      3.93783     11.46838        -0.628465     -0.141447      0.313756
O      13.33095     15.50699     11.13073         0.436045     -0.318124      1.387871
O       1.89411      7.64799      2.62940        -0.330037     -1.211892      0.503325
O       1.95321      7.51949     15.76557        -0.523830      3.053688      1.044923
O      13.46755      7.82797      2.70793        -0.476262      0.188068     -0.003283
O      13.47933      7.81903     15.80630        -0.119851      0.777649      0.134025
O       1.95964      7.66624      6.83261        -0.044703      0.346993      0.474179
O      13.48259      7.85766      6.98746        -0.200444     -0.122919     -0.201771
O       1.97614      7.66006     11.42498        -0.352390      1.481067     -0.101393
O      13.23176      7.80294     11.22233         0.808961      0.218460      0.483145
O       1.94442     11.54408      2.68109         0.105681     -0.475702      0.172906
O       1.87746     11.49840     15.71922         0.552483      0.193801      0.132217
O      13.49203     11.62261      2.53369        -0.258707      1.724222      0.763450
O      13.44557     11.66804     15.70866        -0.011611     -0.194629      0.846564
O       1.82065     11.61932      6.90497         0.380703     -0.744362      0.699665
O      13.48260     11.74621      6.83588         0.089930     -0.774479      0.409269
O       1.84482     11.42887     11.12701        -0.252267      0.523877      0.624160
O      13.47547     11.63209     11.31338         0.573982      0.719144      0.409397
O       5.74655      3.89103      2.50500         0.101844      0.799448      1.078310
O       5.80714      3.90820     15.68254         0.273885     -0.023914      1.010004
O       5.67861      0.12393      2.78850        -0.205157      0.254431      0.138582
O       5.80218     15.41792     15.64183        -0.649410      0.798854      0.772404
O       5.84320      3.91202      7.02084        -0.229316      0.493716      0.593465
O       5.69791     15.41388      6.99436         0.189575      0.155639      0.546973
O       5.72476      3.87450     11.28885        -0.130778      0.658026      0.501741
O       5.77135     15.42190     11.36851        -0.167561     -0.068924      0.389278
O       5.75383      7.76233      2.67309         0.023074     -1.128562      0.546037
O       5.84789      7.70201     15.70934        -0.335349      1.623150      0.679106
O       5.83921      7.84880      6.91950        -0.617957     -1.295330      0.738166
O       5.75622      7.76098     11.33135         0.356527     -0.397500      0.666361
O       5.60905     11.58379      2.51326        -0.145518      0.512055      0.572784
O       5.73076     11.58220     15.77505        -0.038206     -0.534803      0.672104
O       5.71806     11.60065      6.93531        -0.023433     -0.231867      0.500121
O       5.73252     11.57938     11.51369         0.008447     -0.484564      0.339947
O       9.60354      3.92590      2.61985        -0.253895      0.468411      0.547443
O       9.54859      3.96123     15.71332         0.319123     -1.147869      0.352930
O       9.64033     15.47342      2.70395        -0.379860      1.073272      0.433643
O       9.67256     15.43526     15.73595        -0.672203      1.435914      0.732868
O       9.54226      3.89958      6.89146        -0.060190      1.158814      0.928864
O       9.52136     15.41321      7.01006         0.108704      0.359558      0.478672
O       9.61857      3.93160     11.32252         0.048710     -0.076584      0.731728
O       9.56932     15.44918     11.49638         0.007324     -1.195843     -0.174658
O       9.56074      7.84741      2.53343         0.025115     -0.269638      1.505107
O       9.58015      7.79267     15.74934         0.215101      0.801873      0.713809
O       9.58116      7.87368      6.90274         0.141064     -1.567217      0.579775
O       9.54905      7.78350     11.35880         0.080117      0.389482      0.539181
O       9.58612     11.74177      2.56662        -0.247060     -0.314741      1.102485
O       9.59000     11.75822     15.72085         0.159694     -2.432014      0.991073
O       9.70001     11.60913      6.93056        -0.991543      0.859231      0.380746
O       9.66058     11.61271     11.45909        -0.079746     -0.025879     -0.046476
