  # total energy = -7879.03722816 
CRSYTAL
PRIMVEC
    15.3600000000000000    0.2300000000000000    0.0000000000000000
     0.0000000000000000   15.3600000000000000    0.0000000000000000
     0.0000000000000000    0.0000000000000000    17.440000000000000
PRESSURE
2.17492 2.45534 4.97333 -0.028983 -0.120986 -1.54825
PRIMCOORD
320 1
Pb       3.88982      3.84129      4.22145        -0.447726      0.378860      0.258141
Pb       3.74515      3.93241     17.30730         0.106126      0.077676      0.194965
Pb       3.70192     15.37851      4.52652         0.406360      0.294413     -0.597659
Pb       3.72883     15.29299      0.01155         0.278113      0.151080     -0.415132
Pb       0.15063      3.73887      4.15702        -0.612311      0.585714      0.608473
Pb       0.00995      3.71237     17.28648         0.022598      0.477321      0.664178
Pb      15.27915      0.25885      4.42245         0.136399      0.176723     -0.062129
Pb      15.26288     15.46437     17.31595         0.437599      0.615960      0.233777
Pb       3.89354      3.91019      8.63163        -0.509364     -0.284845      0.072640
Pb       3.75353      0.16314      8.83524         0.076292      0.164035     -0.702991
Pb       0.09515      4.25575      8.76544        -0.235079     -1.593676      0.265226
Pb       0.08337     15.26541      8.72504        -0.700650      0.566962     -0.777147
Pb       4.06772      3.99222     13.00574        -0.932652     -0.264840     -0.095670
Pb       3.82264      0.20376     13.11875        -0.263117     -0.263077     -0.350203
Pb      15.34418      4.14997     12.98007        -0.120590     -0.022860     -0.051861
Pb      15.35374      0.31213     13.08447        -0.217788     -0.488509     -0.689118
Pb       3.89080      7.73501      4.37450        -0.009339     -0.065972     -0.423224
Pb       3.81042      7.84496     17.34480        -0.054353     -0.672320      0.254065
Pb      15.17566      7.71163      4.30136         0.378686      0.421780     -0.326370
Pb      15.32154      7.92850     17.31543        -0.107912     -0.123838      0.599026
Pb       3.69540      7.66213      8.53899         0.463250      0.766229      0.966773
Pb      15.17385      8.02463      8.71359         0.679183      0.024000      0.224528
Pb       3.84911      7.75223     12.90133         0.094009      0.009361     -0.359941
Pb       0.02081      7.68537     12.99822        -0.098140     -0.167310      0.209322
Pb       3.85517     11.55106      4.15678         0.158177     -0.015852      1.064549
Pb       3.80281     11.63206     17.38297        -0.072703     -0.209261      0.641208
Pb       0.05299     11.60442      4.20444        -0.357611     -0.882832      0.396874
Pb       0.17342     11.51676      0.10166        -0.322838     -0.806266     -0.710206
Pb       3.64138     11.56952      8.57415         0.663064     -0.540951     -0.131363
Pb      15.27821     11.78760      8.53019        -0.161189     -0.193556      0.005900
Pb       3.82486     11.51235     12.89381        -0.357077     -0.324645      0.617271
Pb       0.05097     11.35214     13.03708        -0.424175      0.724940     -0.256166
Pb       7.53769      3.79067      4.35049         0.069354      0.088199     -0.176950
Pb       7.54818      3.98518     17.37867         0.689788     -0.287730     -0.317519
Pb       7.42483     15.44717      4.40832         0.510556      0.071048     -0.738766
Pb       7.70017      0.21902     17.40182         0.033127     -0.769574      0.038882
Pb       7.58694      4.06168      8.58980         0.679717     -0.737177      0.230566
Pb       7.66902     15.42456      8.72833         0.045793      0.412512     -0.145434
Pb       7.67892      3.84919     12.99293         0.347585      0.184129     -0.467976
Pb       7.62123     15.20043     13.14820         0.531294      0.435978     -0.290429
Pb       7.77345      7.64535      4.43059        -0.757126      0.860319     -0.110976
Pb       7.80356      7.82772      0.16898        -0.166614     -0.124992     -0.664572
Pb       7.86808      7.87415      8.58709        -1.380871      0.065592      0.335715
Pb       7.62659      7.81411     12.99685        -0.605506     -0.167419     -0.072978
Pb       7.73017     11.92914      4.45306        -0.664177     -1.434371     -0.248273
Pb       7.69251     11.51441      0.05547        -0.093518      0.902997      0.588339
Pb       7.55817     11.77382      8.83364         0.256199     -0.829238     -0.674054
Pb       7.75615     11.61518     13.23188        -0.020285     -0.157241     -0.703368
Pb      11.48787      4.04202      4.43785         0.098974     -0.679649     -0.533369
Pb      11.45727      3.88993      0.04145         0.021917      0.198034     -0.338890
Pb      11.61895      0.26767      4.21673        -1.087483     -0.453411      0.637843
Pb      11.37807     15.27480      0.08869        -0.175977      0.739796     -0.479851
Pb      11.48644      3.96803      8.74084        -0.185884      0.357112     -0.159086
Pb      11.58545     15.53246      8.74812        -0.005096      0.019427     -0.693235
Pb      11.51108      3.96427     13.10600        -0.371937      0.205336     -0.507074
Pb      11.62460     15.30648     12.96655        -0.550497      0.466757      0.390875
Pb      11.35806      7.94878      4.19871         1.101596     -0.139867      0.461406
Pb      11.56311      7.70105     17.42779         0.050879      0.793566      0.054139
Pb      11.50423      7.80067      8.55486         0.363903      0.118504      0.573785
Pb      11.45647      7.70094     13.09863         0.264304      0.446498      0.225258
Pb      11.68525     11.57913      4.21502        -0.867907      0.587952      0.137583
Pb      11.59241     11.64816     17.35515         0.007480     -0.649976      0.178067
Pb      11.36111     11.68545      8.45108         0.863557     -0.037623      1.075508
Pb      11.55430     11.58304     13.00434        -0.186414     -0.334347      0.260210
Ti       1.93967      1.79813      2.27350         0.159983      1.595811      0.879117
Ti       1.88638      1.88673     15.42879         0.633391      0.187181     -0.330704
Ti       1.91648     13.45110      2.34682         0.589539     -0.233632     -1.071674
Ti       1.85877     13.40455     15.31877         1.057615     -0.082844      0.720556
Ti      13.42672      2.04644      2.23991         0.032124      1.981310      1.251776
Ti      13.31130      1.97080     15.34830         0.035208      0.589080      3.146027
Ti      13.47861     13.64011      2.21160        -1.191001     -0.774068      2.845449
Ti      13.46642     13.59191     15.36400        -0.721829     -1.152649      1.730822
Ti       1.89204      1.99980      6.71501        -0.498130     -0.271536      2.295129
Ti       1.88839     13.45372      6.64965        -0.325191      0.769864      0.850323
Ti      13.45289      2.19123      6.80608         0.404089     -0.788367      0.532268
Ti      13.37597     13.61800      6.53091         0.145968      0.986247      0.479482
Ti       1.85083      2.01339     11.06226         0.798175     -0.744837      0.239588
Ti       1.90416     13.51773     11.02140        -0.994678     -0.696686      2.010403
Ti      13.32947      2.07788     10.99233         1.198121      0.259249      4.096217
Ti      13.42351     13.47757     11.00885         0.923317      0.816057      2.101608
Ti       1.86520      5.80468      2.28985         0.566260     -0.707795      1.595703
Ti       1.86943      5.79729     15.36190         0.283694     -0.525295     -0.834147
Ti      13.36010      5.89901      2.28959         0.586463     -0.241149      0.456028
Ti      13.41322      5.88828     15.44215        -0.166475      0.899499     -0.510262
Ti       1.88952      5.83544      6.60877        -0.048382     -0.997256     -1.424349
Ti      13.47906      5.94495      6.66161        -0.839656     -1.067944      0.684259
Ti       1.89640      5.82365     11.04381         0.176229      0.567853     -0.767729
Ti      13.33325      6.01250     11.11138         0.419317     -0.793759      0.530191
Ti       1.89635      9.49957      2.42005        -0.286264      0.810620     -1.264353
Ti       1.93143      9.60140     15.39214        -1.058004     -0.341871      1.278402
Ti      13.44080      9.75112      2.22832        -0.348127     -0.733997      0.598492
Ti      13.39830      9.76758     15.38832         0.299951      0.151388      0.989728
Ti       1.85513      9.51422      6.60696         0.670842      2.229399     -0.010952
Ti      13.39376      9.70456      6.56221         0.371227      1.280501      1.614502
Ti       1.80666      9.65238     10.92289         1.072872     -0.891542      0.624753
Ti      13.38411      9.69391     11.01683        -0.427422      0.599996      0.792459
Ti       5.69339      1.89154      2.22470         0.172899     -0.122853      1.407806
Ti       5.67626      1.90938     15.40006        -0.061603      0.412346      0.989075
Ti       5.69220     13.50333      2.29498         0.627956      0.486841      1.183984
Ti       5.74947     13.44832     15.52607         0.204698      0.582325      1.576933
Ti       5.76112      1.94009      6.76272        -0.624442      0.445659      1.451804
Ti       5.71564     13.47427      6.74934        -0.480143     -0.224498      0.278996
Ti       5.77141      1.92928     11.03164        -0.258335      0.401546     -0.029921
Ti       5.70338     13.44818     11.04029         0.785464      0.422732      0.046902
Ti       5.76712      5.87793      2.26021        -0.883133     -0.396627      4.454154
Ti       5.77474      5.85676     15.38504        -0.290275      0.186582      1.768303
Ti       5.72879      5.90209      6.67151        -0.220841     -0.397582      2.166012
Ti       5.79520      5.83914     10.80731        -0.509782      0.600256      3.399383
Ti       5.79917      9.69064      2.42243         0.130188      0.224659      1.779591
Ti       5.72104      9.71436     15.41476         0.261720     -0.685929      1.432429
Ti       5.77729      9.66636      6.67645        -1.003471      0.633726      1.161220
Ti       5.74981      9.76449     10.92452        -0.236401     -2.369393      0.952446
Ti       9.56342      2.02831      2.33348        -0.280577     -0.785993      2.049995
Ti       9.60822      2.01127     15.35793        -0.512708     -0.040094      3.139012
Ti       9.58832     13.53278      2.36507        -0.397837      0.737597     -0.137292
Ti       9.62934     13.46642     15.51358        -0.843264      1.516388     -1.530604
Ti       9.58292      2.01465      6.70048        -0.085673      1.434736     -0.731578
Ti       9.55215     13.59130      6.63900         0.121294      0.097749      1.697443
Ti       9.67969      1.96303     11.06807        -1.122411      0.915426      0.541524
Ti       9.57155     13.49281     11.11797         0.016466      0.084834      0.994867
Ti       9.57552      5.83438      2.39609        -0.609914     -0.300382     -0.330541
Ti       9.58836      5.88965     15.45886         0.055784     -0.589909      1.175155
Ti       9.58206      5.90963      6.64581         0.447635     -1.164640      2.885767
Ti       9.50021      5.95153     10.98402         0.455071     -1.767753      0.860715
Ti       9.46616      9.76092      2.42715         0.797578      0.957568     -0.314352
Ti       9.49882      9.73161     15.47234         1.806644     -0.499454      1.651979
Ti       9.55614      9.73783      6.64187        -0.708246      0.911375     -1.681987
Ti       9.54836      9.65043     11.00563         0.280282      1.021489      1.705129
O       1.93650      1.88550      0.54626        -0.226367     -0.304455     -0.690080
O       1.99729      1.88049     13.67804        -0.233942     -0.077546     -0.652757
O       1.95452     13.39075      0.53731        -0.386096      0.296484      0.394293
O       1.80297     13.32010     13.60835         0.324493      0.103418     -1.006958
O      13.37349      2.13385      0.55410         0.360121     -0.403305     -1.724408
O      13.25835      1.86166     13.66781         0.302206      0.458940     -1.207191
O      13.50651     13.54004      0.52446        -0.295213      0.224157     -1.779998
O      13.37440     13.59546     13.67329         0.083072      0.070683     -1.644472
O       1.95145      1.95824      5.01312        -0.285136     -0.277515     -1.665076
O       1.91025     13.50355      4.91498        -0.239046      0.035149     -1.410124
O      13.41875      2.12203      5.06257         0.028991     -0.004877     -0.782675
O      13.38768     13.64447      4.77031         0.445266      0.181794     -0.521551
O       2.00993      1.94697      9.33725        -0.415583     -0.303366     -1.245238
O       1.79548     13.48426      9.30073         0.196530     -0.038638     -0.858985
O      13.27091      2.13400      9.35089        -0.030176     -0.190224     -3.836644
O      13.45606     13.50664      9.33174        -0.028836      0.163911     -2.032195
O       1.92766      5.85949      0.58553         0.025896     -0.163976     -0.947907
O       1.77960      5.82101     13.56096         0.289240     -0.166863      0.008770
O      13.36991      6.07921      0.57877         0.017139     -0.630062     -1.207271
O      13.29909      5.90709     13.63197         0.198800     -0.149868      0.622113
O       1.76007      5.69268      4.79476         0.402242      0.605500      1.799376
O      13.51535      5.91314      4.95518        -0.360216     -0.291214     -1.309871
O       2.02162      5.96153      9.21914        -0.793038     -0.761086      1.245454
O      13.42399      6.03424      9.39040        -0.095640      0.256612     -1.610623
O       1.95901      9.52803      0.59122        -0.343847      0.051666      0.914388
O       1.87667      9.67001     13.67280         0.118073     -0.346376     -1.074645
O      13.53468      9.69117      0.51740        -0.307215      0.478372     -0.934935
O      13.36508      9.80948     13.66517         0.269580     -0.016537     -1.426126
O       1.82710      9.56092      4.87310         0.059569      0.270740     -1.116026
O      13.48336      9.80821      4.87610        -0.279121     -0.254878     -1.198194
O       1.72244      9.52278      9.21910         0.326127      0.282012     -1.520860
O      13.31786      9.70594      9.27905         0.328235     -0.194749     -1.040594
O       5.78100      1.79188      0.51359        -0.341560      0.564386     -1.085474
O       5.48802      1.89211     13.63101         0.558106      0.305093     -0.235918
O       5.60725     13.54561      0.59888         0.091645      0.063705     -2.052351
O       5.83719     13.39480     13.82215         0.216871      0.127879     -1.833867
O       5.65175      2.08197      5.07092         0.321016     -0.596148     -1.984602
O       5.80412     13.52562      4.99469        -0.559206      0.284799     -0.373670
O       5.62926      1.94226      9.28276         0.308695     -0.216737     -0.385484
O       5.84026     13.40736      9.27377        -0.254021      0.316583      0.114195
O       5.78813      5.85340      0.60658         0.218726      0.005291     -2.575025
O       5.74099      5.77287     13.69043         0.121741     -0.048066     -1.553212
O       5.70271      5.76409      4.99958        -0.021025      0.220019     -2.209206
O       5.81847      5.85657      9.11533        -0.210296     -0.042205     -1.259580
O       5.90958      9.65416      0.74177        -0.021437     -0.148012     -2.325375
O       5.68156      9.75205     13.72452         0.087098     -0.030537     -1.588861
O       5.63859      9.71970      4.98872         0.066639     -0.219879     -2.253531
O       5.91990      9.91007      9.23971        -0.308831     -0.419038     -1.353538
O       9.55818      2.02488      0.62809        -0.014233      0.096752     -1.468596
O       9.68008      1.96098     13.70611        -0.132266      0.092140     -2.735058
O       9.70095     13.61544      0.58971        -0.107974     -0.367198     -0.048357
O       9.59034     13.50025     13.64204        -0.470169     -0.117184      0.711125
O       9.62693      2.03178      4.91554        -0.060185      0.161487      0.633213
O       9.45682     13.49456      4.95592         0.309819      0.570756     -1.228382
O       9.81029      2.06068      9.35573        -0.258316     -0.072848     -1.164948
O       9.48415     13.51148      9.40519         0.137401     -0.032641     -1.400980
O       9.49724      5.80336      0.61828        -0.020616      0.344979      0.863081
O       9.73077      5.80235     13.74720        -0.394631      0.370108     -1.400434
O       9.58576      5.94938      4.97274         0.173203     -0.152494     -2.582805
O       9.37752      5.90759      9.24508         0.576793      0.359485     -0.301183
O       9.40596      9.78466      0.64252        -0.076424     -0.449223     -0.343945
O       9.55109      9.74402     13.77172        -0.177566     -0.121573     -1.326661
O       9.53791      9.79398      4.85162         0.433977     -0.455257      0.780221
O       9.58173      9.69989      9.30045        -0.126830     -0.188226     -1.448227
O       3.81902      1.93640      2.80834        -0.336141     -0.406994     -0.380843
O       3.74249      1.96053     15.90150         1.051072     -0.259730     -0.093130
O       3.77050     13.49024      2.67522        -0.078350     -0.084392      0.489644
O       3.80098     13.39323     15.73087        -0.084218      0.071236      0.293024
O       0.02926      1.82186      2.81093        -0.250733     -0.282822     -0.613958
O      15.35751      2.06490     15.73766        -0.946102     -0.040335      0.106292
O      15.32940     13.63326      2.54685        -0.057215      0.285402      0.603907
O      15.33935     13.76056     15.76408         0.140975     -0.630652      0.079689
O       3.81004      1.84996      7.07735        -0.121779      0.377802      0.648727
O       3.76549     13.42503      7.15230         0.409172      0.536681     -0.170242
O      15.33043      2.11970      7.25503         0.412341     -0.048741     -0.406928
O      15.24631     13.77165      7.02143         1.170336     -0.389557      0.187068
O       3.77210      2.08840     11.35019         0.539865     -0.524041      0.928594
O       3.91180     13.30942     11.44619        -1.679409      0.301786     -0.345952
O      15.26704      2.17111     11.56571         0.162321     -0.524277     -0.223654
O      15.31335     13.66255     11.57025         0.679260     -0.022386     -0.576637
O       3.78484      5.87634      2.78442         0.962173     -0.211348     -0.456905
O       3.77575      5.87950     15.80837         0.912891     -0.337469     -0.050030
O      15.26845      5.86090      2.72434         0.618371      0.848702     -0.248079
O      15.33371      5.95204     15.79225        -0.098782     -0.212766     -0.046953
O       3.75217      5.77513      7.11632         0.450681      0.594726     -0.607282
O       0.01420      5.78419      7.08265        -0.072836      0.597085      0.082498
O       3.86840      5.88660     11.40093        -0.400130     -0.705589     -0.150723
O      15.30811      6.10629     11.31947         0.486117     -0.986790      0.631607
O       3.85479      9.74038      2.71717        -0.515387     -0.928822      0.183934
O       3.84644      9.73683     15.87525        -0.136900     -0.890577     -0.248751
O      15.25885      9.74301      2.71393         1.309321      0.368084      0.043712
O      15.33011      9.79387     15.90151         1.133942      0.308265     -0.549503
O       3.75583      9.61138      7.00882        -0.401282      0.547697      0.542404
O      15.35385      9.75031      7.08002        -1.737747      0.366000     -0.091326
O       3.76274      9.55357     11.26834         0.534953      0.452167      0.467232
O      15.34710      9.73503     11.28778        -1.250389      0.103856      0.844831
O       7.57288      1.88617      2.74458         0.589939      0.284705      0.138072
O       7.62856      1.97661     15.66910        -0.079711     -0.006751      0.223590
O       7.59891     13.58678      2.73046         0.574326      0.344244      0.260633
O       7.76126     13.56150     15.98814        -1.448798     -0.187624     -0.550926
O       7.62121      2.04245      7.11703         1.095261      0.005591      0.186859
O       7.62693     13.50020      7.03689         1.165472      0.119928      0.617235
O       7.68315      1.90588     11.33876        -0.807367      0.446067      0.593724
O       7.64656     13.43774     11.59163        -0.608670      0.479419     -0.136940
O       7.66195      5.87078      2.94496        -0.396704     -0.112405     -0.937358
O       7.72213      5.81958     15.88024        -1.251772      0.160830     -0.146513
O       7.63251      5.89958      7.06286         0.511125      0.370676     -0.333057
O       7.61986      5.75680     11.46317         0.364575      0.322401     -0.041365
O       7.69977      9.69539      2.86731        -1.697787     -0.270366      0.118916
O       7.65321      9.85869     15.84893        -0.201363     -0.807003     -0.201475
O       7.62948      9.73315      7.00446         1.197992     -0.583366      0.259147
O       7.60921      9.61330     11.48293         0.680321      0.034281      0.079194
O      11.48815      2.12444      2.73436         0.259992      0.110417     -0.000112
O      11.45995      2.09192     15.87169         0.784389      0.123173     -0.164832
O      11.44172     13.56284      2.79810         1.359829     -0.203577     -0.492619
O      11.48196     13.49489     15.81416         1.239284      0.378762      0.400810
O      11.46323      2.21745      7.17511         0.806144     -0.451015     -0.151363
O      11.45592     13.60980      7.00282        -0.241930     -0.118993      0.179868
O      11.52291      1.96572     11.51837        -0.322928      0.353902      0.222451
O      11.53442     13.41674     11.45325        -0.847443      0.549800     -0.177682
O      11.43103      6.01785      2.73455         0.148400     -1.059876      0.312665
O      11.48967      5.90764     15.92130         0.815022     -0.030103     -0.070423
O      11.52778      5.91918      7.05137        -0.246762     -0.153355     -0.019133
O      11.46048      6.03801     11.42325        -1.018521     -0.101833     -0.056231
O      11.42906      9.78347      2.58115         0.833320     -0.049321      0.686753
O      11.55584      9.74170     15.82528        -1.301517      0.379854      0.353586
O      11.46056      9.78234      7.02143         1.098322     -0.145720     -0.125194
O      11.47926      9.58534     11.38873        -0.666582      0.530252      0.360208
O       1.97277      3.84867      2.66588        -0.344459     -0.483634     -0.200377
O       2.02573      3.88161     15.74417        -1.033846     -0.467653      0.231598
O       1.92811     15.34854      2.78498        -0.198946     -0.403168      0.129246
O       1.94949     15.28982     15.77244        -0.193239      0.425398     -0.009608
O      13.46095      3.96321      2.57497        -0.556223      0.327256      0.600568
O      13.52121      4.07009     15.99477        -1.091347     -1.101216     -1.185711
O      13.34470      0.20466      2.61873         0.553628     -1.277744      0.094038
O      13.28748     15.49462     15.87047         0.555270      0.215581     -0.188621
O       1.91536      3.92737      7.12262        -0.115433     -0.284419     -0.051060
O       1.92474     15.36534      7.03343        -0.291266      0.316679      0.586141
O      13.52359      4.08035      7.24902        -0.408969      0.026801     -0.209174
O      13.42170     15.49704      7.10701        -0.696826      1.044524      0.329899
O       1.73167      3.80894     11.39421         0.342318      2.348542      0.195525
O       2.01885     15.35981     11.41601        -0.464565     -0.125126      0.163070
O      13.26607      4.08237     11.43080         0.529394     -0.598954      0.296959
O      13.40697     15.52677     11.41888        -0.026935     -0.735128     -0.158218
O       1.86005      7.71388      2.82627         0.121938     -0.708435     -0.156221
O       1.84776      7.59902     15.84166         0.563364      2.004563     -0.300123
O      13.33586      7.79512      2.59335         0.216979      0.885052      1.013851
O      13.44657      7.89666     15.75269        -0.186107     -1.503636      0.253328
O       1.84724      7.74996      7.02599         0.237675     -2.085246     -0.062479
O      13.36023      7.83216      6.96295         0.283165      0.787239      0.374843
O       1.81404      7.68568     11.40909         0.667002     -0.035185      0.434009
O      13.44624      7.88349     11.60063        -0.248223     -0.099406     -0.086420
O       1.91724     11.52678      2.64992        -0.702021      0.068654      0.418476
O       1.94187     11.44065     15.80139        -0.803502      1.277614      0.228687
O      13.43021     11.63403      2.69456         0.155454      1.284645     -0.368169
O      13.48006     11.70290     15.75831        -0.003705      0.519634      0.338989
O       1.79900     11.62886      7.02645        -0.064373     -1.424217      0.284207
O      13.47798     11.78752      6.88290        -0.326251     -1.628267      0.497749
O       1.78765     11.47922     11.37445         0.562633      1.008937      0.096472
O      13.40300     11.60154     11.46638         0.296691     -0.127953      0.013294
O       5.74065      3.79788      2.74460         0.098707      1.178690     -0.514062
O       5.72507      3.89648     15.83743        -0.214164     -0.169847     -0.107359
O       5.63372     15.37793      2.77740         0.041460      0.689937      0.465673
O       5.62622     15.41155     15.85945         0.397411     -0.054822     -0.360792
O       5.71685      3.91865      7.12354        -0.060338      0.207324      0.097489
O       5.87500     15.39124      7.14235        -0.739410      0.049097      0.074933
O       5.73913      3.89317     11.38578         0.282391      0.214311      0.004864
O       5.58393     15.37500     11.39824         0.547399     -0.261729      0.252554
O       5.72867      7.75674      2.79608         0.193370     -0.318459     -0.060689
O       5.77015      7.73168     15.74017         0.154521      1.055021      0.271744
O       5.65161      7.79578      7.10070         0.385128     -0.808592     -0.284374
O       5.77492      7.72234     11.36132         0.053184     -0.150287      0.081906
O       5.75110     11.67626      2.72933        -0.032952     -1.230042      0.264269
O       5.74720     11.60331     16.01969         0.150945     -0.426710     -0.475682
O       5.69449     11.57496      7.07414         0.019294      0.577091      0.437349
O       5.78904     11.49177     11.44009        -0.091196      2.052987      0.579730
O       9.49454      3.94654      2.86233         0.347423      0.277153     -0.311401
O       9.63701      4.00623     15.87499        -0.392765     -1.299909     -0.072112
O       9.64111     15.44662      2.74469        -0.165781      0.776738      0.005103
O       9.59769     15.39602     15.89823         0.381087      1.274070     -0.148893
O       9.57587      4.02360      7.13299        -0.272810      0.029052     -0.283029
O       9.61832      0.23180      7.14198        -0.300214     -2.024645      0.146072
O       9.60148      3.94470     11.52452         0.098794      0.349031      0.058653
O       9.53849     15.47370     11.37076         0.344278     -1.639558      0.570833
O       9.55952      7.83821      2.86556        -0.686117     -0.809273     -0.693802
O       9.60236      7.79570     15.97008        -0.559112      0.851148     -0.374388
O       9.66900      7.86203      7.06657        -0.641369     -0.666121     -0.101948
O       9.47535      7.76106     11.51271        -0.094252      0.090704     -0.133225
O       9.45205     11.67696      2.82009         0.508454     -0.054016     -0.270441
O       9.61524     11.68979     15.99039        -0.140495     -1.949842     -0.293102
O       9.55699     11.58471      7.08472        -0.258608      1.406099     -0.159447
O       9.44498     11.54599     11.48466         0.655996      0.032289      0.018777
