  # total energy = -7882.42637625 
CRSYTAL
PRIMVEC
    15.3600000000000000    0.0000000000000000    0.0000000000000000
     0.0000000000000000   15.3600000000000000    0.0000000000000000
     0.2400000000000000    0.0000000000000000    17.440000000000000
PRESSURE
0.628659 0.49187 -2.89356 0.032532 -0.651439 0.065638
PRIMCOORD
320 1
Pb       3.90151      3.85358      4.32822         0.102108     -0.028779     -0.233747
Pb       4.02657      3.79329     17.39159        -0.126136      0.320674      0.342914
Pb       3.83100     15.27710      4.35604         0.034975      0.268958     -0.209056
Pb       3.82431      0.03025      0.00029         0.300427     -0.194639     -0.144581
Pb       0.06409      3.76419      4.30236        -0.463034      0.188015     -0.098149
Pb      15.55161      3.80767     17.39801        -0.371675     -0.150434     -0.464397
Pb      15.32889     15.27684      4.29835         0.263190      0.093256      0.308068
Pb      15.48628     15.32340     17.39710        -0.065285      0.333591     -0.526803
Pb       3.92956      3.88217      8.64501        -0.069983     -0.559788     -0.151265
Pb       3.85912     15.31540      8.73046        -0.196504      0.053599     -0.781389
Pb       0.17064      3.89028      8.71542        -0.234404     -0.423110     -0.313842
Pb      15.44479      0.02337      8.73662        -0.205962      0.171024     -0.336843
Pb       3.94860      3.87784     13.04561         0.344161     -0.273817     -0.560756
Pb       4.02150     15.28766     13.12833        -0.347053     -0.044458     -0.042383
Pb       0.19336      3.72159     13.10457        -0.346506      0.383479     -0.436137
Pb      15.47698     15.24811     13.10903         0.102851      0.314423     -0.163789
Pb       3.84364      7.57678      4.27709         0.507731      0.497240     -0.087584
Pb       4.09180      7.50296     17.39492        -0.221580      1.132220      0.659182
Pb      15.36620      7.63861      4.33402        -0.378240     -0.192222     -0.499709
Pb      15.58976      7.60126     17.27008        -0.235343      0.174274      0.421981
Pb       3.91989      7.72432      8.67720         0.027194      0.303370     -0.094181
Pb       0.19177      7.70254      8.78782        -0.130153      0.042564     -0.581987
Pb       4.08734      7.67119     12.96938         0.395362      0.296959     -0.004407
Pb      15.39258      7.65805     13.15760         0.217447     -0.259930     -0.620092
Pb       3.78441     11.48089      4.25360         0.296789      0.236483     -0.072073
Pb       3.91238     11.47226      0.14653        -0.163968     -0.212783     -0.821416
Pb       0.08189     11.51997      4.18643        -0.153925     -0.119152      0.436288
Pb      15.58570     11.46095     17.37626        -0.196365      0.278339     -0.192185
Pb       3.92903     11.51496      8.68038        -0.195839     -0.024341     -0.300246
Pb       0.13606     11.40762      8.67605        -0.170308      0.305440     -0.291472
Pb       3.88396     11.43338     13.16142         0.278255      0.185743     -0.058002
Pb      15.36322     11.51630     13.13221         0.533064     -0.327313     -0.067558
Pb       7.67972      3.72431      4.42250         0.077463      0.473317     -0.312724
Pb       7.74122      3.88274      0.03985        -0.330029      0.078684     -0.570913
Pb       7.76179      0.04062      4.35146        -0.374526     -0.083702      0.035884
Pb       8.04049      0.09306     17.38919        -0.800921     -0.461842      0.346088
Pb       7.74272      3.87868      8.61294         0.374318     -0.341789      0.526082
Pb       7.83102     15.21449      8.59111         0.137405      0.744955      0.137868
Pb       7.73120      3.77667     12.98570         0.191461      0.409333     -0.830021
Pb       7.67476      0.10507     12.92074         0.697922     -0.222190      0.445506
Pb       7.76545      7.68914      4.37562        -0.278428     -0.234947     -0.510727
Pb       7.71706      7.62370      0.02812        -0.194493      0.309150     -0.326261
Pb       7.78866      7.65934      8.73359         0.123759      0.017183     -0.447643
Pb       7.84324      7.74616     12.99911        -0.188740     -0.336263     -0.272027
Pb       7.76518     11.42297      4.24282        -0.179799      0.720967      0.096278
Pb       7.63952     11.55863      0.06761        -0.025288      0.337793     -0.150538
Pb       7.71503     11.49231      8.65060         0.391392     -0.197007     -0.109195
Pb       7.80110     11.51723     13.08422         0.049284     -0.113882     -0.391597
Pb      11.58706      3.72353      4.44997        -0.029423      0.232103     -0.264447
Pb      11.57915      3.77633     17.36999         0.853031      0.151634     -0.037650
Pb      11.62217     15.32989      4.36847        -0.207512      0.001649      0.343153
Pb      11.73642      0.06992     17.32342        -0.143782      0.095164      0.445664
Pb      11.66502      3.86806      8.72384        -0.123788     -0.250923     -0.333925
Pb      11.64075     15.29988      8.69272        -0.056985      0.484133     -0.205393
Pb      11.57324      3.88359     13.04502         0.272450     -0.156773     -0.922482
Pb      11.57068     15.19635     13.05467        -0.066012      0.804168     -0.635855
Pb      11.64126      7.65810      4.49021        -0.283021     -0.198838     -0.861986
Pb      11.76974      7.62240     17.37902         0.085523     -0.283436     -0.110889
Pb      11.72106      7.73786      8.71790        -0.238178     -0.319974     -0.586518
Pb      11.63312      7.72932     13.10066        -0.283311     -0.090176     -0.506342
Pb      11.59947     11.50671      4.25661        -0.174762     -0.001572      0.262789
Pb      11.60828     11.53901     17.42935         0.094855      0.362521      0.082354
Pb      11.67306     11.56960      8.60601        -0.045471     -0.076393     -0.489094
Pb      11.57304     11.51311     13.04060        -0.064017     -0.301863     -0.215509
Ti       1.92436      1.89568      2.29982         0.758642     -0.257845     -0.679481
Ti       2.16953      1.88579     15.41628        -1.464457     -0.396323     -1.372779
Ti       1.91595     13.41962      2.12908         0.666578      0.063334      2.405562
Ti       2.13933     13.41397     15.43932        -0.365623      0.250808      0.454777
Ti      13.45167      1.85374      2.34660        -0.860681      1.464331     -1.274436
Ti      13.57258      1.98151     15.24204         0.728420     -0.247021     -0.009187
Ti      13.51538     13.41059      2.25187        -1.181067      0.161939     -1.281608
Ti      13.58991     13.48578     15.40410         0.519327     -0.601754      0.427689
Ti       1.98014      1.85992      6.57526         0.166060      0.823730     -0.081043
Ti       1.97310     13.38130      6.59230         0.186910      0.537039     -0.457563
Ti      13.56924      1.84944      6.68808        -0.438608      0.395621     -0.125462
Ti      13.54654     13.41360      6.65428        -0.396850     -0.337475     -0.145361
Ti       1.96136      1.89836     11.06362         0.593049     -0.037670     -0.863988
Ti       2.05503     13.42948     11.15152        -0.373523     -0.633672     -1.309870
Ti      13.60098      1.86079     11.07416        -1.378082      0.697779     -1.134864
Ti      13.55148     13.39396     11.08479        -0.021108      0.174713     -1.096306
Ti       1.88758      5.75390      2.29504         0.067036      0.392156     -1.034461
Ti       2.15902      5.78882     15.28317        -0.548475     -0.039777      1.600389
Ti      13.35436      5.75420      2.32244         0.769731     -0.850748     -0.014324
Ti      13.65973      5.72470     15.35491        -0.744913      0.128736     -0.463822
Ti       2.05412      5.75949      6.70577        -0.519426     -0.294584      0.512455
Ti      13.62953      5.74382      6.66720        -0.691664     -0.395088     -0.549669
Ti       2.06712      5.80612     11.03390        -0.744645     -0.999248      0.572005
Ti      13.55279      5.75905     10.98243         1.131747     -0.535187     -0.327476
Ti       1.89333      9.50869      2.14697         0.514214      0.519163     -0.427030
Ti       2.17528      9.62437     15.43741         0.265269      0.058827     -1.059544
Ti      13.46508      9.58367      2.19855        -0.736244     -1.031379      1.362792
Ti      13.59715      9.67342     15.45823         0.345660     -0.488233      0.193552
Ti       2.06465      9.59818      6.61518        -0.201879     -0.662344      0.738694
Ti      13.62906      9.52678      6.55329        -0.404581      1.204415      1.187922
Ti       2.05888      9.55141     11.15084         0.204092      0.320112     -0.864752
Ti      13.56973      9.57185     11.11942        -0.066338     -0.403965      0.355052
Ti       5.79228      1.95557      2.30506        -0.481824     -0.348220     -0.107086
Ti       5.91924      1.95058     15.43074         1.440258     -0.521156     -1.212313
Ti       5.76239     13.52800      2.33147         0.977556     -0.443509      0.051920
Ti       5.90765     13.44826     15.45124         0.646382      0.608348     -0.687821
Ti       5.84425      1.84307      6.70556        -0.121690      0.465824     -0.822190
Ti       5.88826     13.39392      6.50758        -1.033127      0.312239     -0.216443
Ti       5.73163      1.82721     10.96805         0.464384      1.475985     -1.786775
Ti       5.80791     13.42012     10.98211         0.706768     -0.655961      0.664320
Ti       5.81621      5.78297      2.31808         0.383658      0.142806      0.491509
Ti       5.96645      5.80876     15.42618         0.627522     -0.551637     -0.871223
Ti       5.86454      5.73973      6.70213         0.231599     -0.051047     -0.732848
Ti       5.89389      5.72886     10.90218         2.469662      0.182075      0.438859
Ti       5.72234      9.66765      2.34321         0.504622     -0.753722      0.050873
Ti       6.02659      9.64914     15.43574        -0.897504     -0.676557     -1.118736
Ti       5.92232      9.60131      6.60840        -0.345528     -0.568277     -1.048054
Ti       5.89826      9.68982     10.99982         0.813432     -1.104774     -0.525372
Ti       9.59307      1.95086      2.41365         0.614306      0.178169     -0.583585
Ti       9.69180      2.02434     15.32930         0.776774     -1.348569     -0.912210
Ti       9.67068     13.52595      2.41836        -0.266915     -0.558125     -0.558137
Ti       9.74716     13.55108     15.35677        -0.457721     -0.488868      0.001918
Ti       9.68218      1.91062      6.72009         1.018806      0.102552     -0.673386
Ti       9.67254     13.40040      6.60607         1.598862      0.113381     -0.222273
Ti       9.74738      1.88056     10.99381         1.148029      0.488228     -1.298431
Ti       9.66147     13.44149     10.94509         0.579095      0.028420     -0.365447
Ti       9.68067      5.73398      2.33746        -0.417407      0.150702      0.615030
Ti       9.78211      5.84843     15.30230         0.627358     -1.248394     -0.538808
Ti       9.70013      5.69390      6.67685         1.003375      0.622835      1.271129
Ti       9.79974      5.76004     10.94254        -0.582036     -0.383369     -1.259447
Ti       9.61164      9.61678      2.38547         0.543858     -0.254620     -0.426779
Ti       9.77561      9.67713     15.51350        -0.144544     -0.711914     -1.540950
Ti       9.71187      9.54648      6.60403         0.649199      0.373465     -0.103072
Ti       9.73379      9.61257     10.93392        -0.184711     -0.735418      1.060969
O       1.96057      1.91810      0.44586        -0.270850      0.185061      1.266678
O       2.06594      1.95380     13.56744         0.570431     -0.149839      0.941881
O       1.98477     13.45293      0.42387        -0.334112      0.060570     -0.612534
O       2.17758     13.43519     13.66934        -0.088503     -0.086091     -0.498405
O      13.36992      2.02287      0.52523         0.381308     -0.517472      1.025801
O      13.72469      2.02551     13.45409        -0.621805     -0.349436      0.523876
O      13.58721     13.50618      0.41390        -0.683932     -0.405592      1.755460
O      13.60501     13.39736     13.59649        -0.027742      0.190461      0.342687
O       1.96895      1.95915      4.78844        -0.062019      0.027544     -0.197457
O       2.00898     13.37155      4.77165        -0.303445     -0.092443      1.316472
O      13.50936      1.82277      4.89723         0.473116     -0.061451     -0.422659
O      13.61309     13.43156      4.88712        -0.134853     -0.018860     -0.563621
O       1.93643      1.78914      9.27388         0.219915     -0.243371      0.027349
O       2.09558     13.39112      9.29666         0.140654      0.093135      1.215534
O      13.61575      1.76182      9.23207         0.202716      0.063735      0.836250
O      13.50273     13.36604      9.28405         0.224460     -0.053284      0.523912
O       2.03492      5.74151      0.49153        -0.495957     -0.093739      0.724507
O       2.07004      5.64602     13.55477         0.677084      0.187291     -0.356409
O      13.35631      5.76505      0.55327         0.085444     -0.270017     -0.720117
O      13.70102      5.77119     13.57963        -0.213088     -0.058103      0.178033
O       2.01431      5.67122      4.96792        -0.034419      0.531854     -1.320075
O      13.55995      5.86463      4.83313         0.429027     -0.206306      0.863175
O       2.14358      5.67286      9.26208        -0.172638      0.642692      0.166797
O      13.77021      5.81765      9.14873        -0.790139      0.110887      1.093852
O       1.97380      9.55379      0.34979        -0.278607      0.212417      1.139502
O       2.23985      9.59347     13.56374         0.044396     -0.016830      1.323203
O      13.45277      9.57450      0.47186        -0.322478      0.004977     -0.866372
O      13.53106      9.68881     13.69583         0.222441     -0.365643     -0.501661
O       1.96916      9.57573      4.87163        -0.065569      0.030026     -0.480205
O      13.66602      9.61630      4.81694         0.033113     -0.535116     -0.908596
O       2.19173      9.55198      9.29629        -0.615459      0.131328      1.350224
O      13.65033      9.47068      9.39381        -0.109946      0.283281     -1.092714
O       5.82602      1.80496      0.52988        -0.183315      0.504022     -0.208836
O       5.92392      1.80167     13.58488         0.074502      0.557526      0.266217
O       5.82116     13.60105      0.54321        -0.393474     -0.695654      0.324502
O       5.90881     13.40808     13.64487         0.085974      0.107029      0.567563
O       5.98985      1.82976      4.88915        -0.296526      0.468440      0.697515
O       5.82838     13.45964      4.73748         0.053424     -0.125726      0.836866
O       5.75814      1.83856      9.11957         0.073378     -0.251390      1.297324
O       5.71318     13.37660      9.24299         0.143643      0.224416     -0.641070
O       5.72503      5.82735      0.54596         0.433060     -0.245779     -0.545315
O       5.92426      5.69925     13.66090        -0.055368     -0.027785      0.194323
O       5.86573      5.71609      4.91948         0.045007      0.050503     -0.181659
O       5.91395      5.65202      9.13270        -0.343633      0.256708     -0.253761
O       5.77442      9.67004      0.54157         0.081184      0.137292      0.336193
O       6.00662      9.63936     13.57782        -0.146946      0.087627      1.303948
O       6.03253      9.63407      4.75245        -0.591015     -0.264425      2.078810
O       5.98184      9.63935      9.19851        -0.203910      0.050991      0.390278
O       9.62339      1.86980      0.55780        -0.162392      0.653500      0.910719
O       9.58299      1.76455     13.57945         0.442965      0.809247     -0.341840
O       9.72946     13.58339      0.62956        -0.095563     -0.201261     -0.173588
O       9.75286     13.38762     13.56186         0.099934      0.419885      0.807154
O       9.57876      1.98118      4.86941         0.138952      0.114358      0.960334
O       9.78640     13.46686      4.83724        -0.566154     -0.296812      0.195709
O       9.92984      1.81956      9.18977        -0.532711      0.163474      0.511802
O       9.77307     13.56993      9.15163        -0.227687     -0.490516      0.724282
O       9.70382      5.63204      0.54166        -0.310319      0.277769     -0.045954
O       9.77661      5.88262     13.51860         0.204624     -0.451886      0.266249
O       9.77663      5.62475      4.94592        -0.313256      0.263619     -0.710127
O       9.98864      5.65779      9.08412        -0.624100      0.839910      1.577696
O       9.61572      9.61889      0.57553        -0.257677     -0.013716     -0.395551
O       9.70988      9.66618     13.70825         0.247221     -0.168901      0.425521
O       9.67882      9.66273      4.77792        -0.260133     -0.250411      1.282159
O       9.73672      9.44459      9.21283         0.078078      0.372201     -0.822705
O       3.90070      1.96757      2.63615        -0.639936     -0.202324      0.237380
O       4.12992      1.82175     15.71140        -1.994198      0.010008      0.469626
O       3.86622     13.39747      2.65722        -0.628748      0.084375     -0.283805
O       4.04890     13.39118     15.86440         0.012953      0.357749     -0.029721
O      15.37513      1.72392      2.70875         0.663693      0.992321     -0.309471
O      15.49392      1.90653     15.52370         0.709246      0.232808      1.103541
O      15.36266     13.38953      2.67631         0.839860      0.617848     -0.350446
O       0.21849     13.51392     15.84262        -0.355392     -0.731759     -0.495582
O       3.93677      1.85302      6.87020         0.418237      0.060518      0.555797
O       3.91437     13.33394      6.94801         0.183499      0.509917      0.047464
O       0.15696      1.85826      7.01327        -0.541997     -0.185018      0.359287
O      15.42691     13.33673      6.98037         1.399943     -0.053233      0.448463
O       3.87234      1.90160     11.21736         1.354712     -0.427902      0.780299
O       3.98712     13.40438     11.54516        -0.192454     -0.116448     -0.293561
O      15.48414      1.88936     11.33128         0.127374     -0.215948      0.812851
O      15.49155     13.42820     11.41595         0.314600     -0.280130      0.447583
O       3.96177      5.81949      2.73728        -0.506421     -0.517091      0.196689
O       4.00437      5.84266     15.86425         0.316272     -0.425081     -1.009745
O      15.37506      5.77689      2.63118         1.222359      0.163763      0.164592
O       0.28671      5.74979     15.70241        -0.192683     -0.420881      0.376108
O       3.93527      5.62747      7.01671         0.530713      0.782458      0.304122
O       0.17798      5.87585      7.12638        -0.089833     -0.587444     -0.099472
O       4.17175      5.78528     11.38508        -3.158890     -0.280712      0.486815
O       0.17010      5.82933     11.45132         0.268365      0.286625     -0.293242
O       3.82920      9.66389      2.72686         0.369232      0.044046     -0.334816
O       4.05723      9.54229     15.86912         0.588277      0.365667     -0.461572
O       0.04225      9.42907      2.49827         0.072357      0.230908      0.399893
O      15.56045      9.72687     15.75974        -0.372453     -0.513444     -0.056860
O       4.02193      9.45688      7.04588         0.245816      0.627135     -0.330014
O       0.16666      9.54495      7.10599        -0.204954      0.470254     -0.011239
O       4.06515      9.44979     11.26240        -0.541119      0.559127      0.893864
O       0.19514      9.46988     11.51979        -0.577821      0.183042     -0.044361
O       7.66235      1.97013      2.70039         1.298073     -0.052905      0.094882
O       7.86654      2.00064     15.70525        -0.509912      0.144578      0.774276
O       7.79534     13.38886      2.61788        -0.784995      0.043565      0.358826
O       7.87436     13.48603     15.89332         0.765007     -0.400984     -0.394445
O       7.84135      1.97837      7.08854        -0.518084     -0.368965      0.139761
O       7.84928     13.39959      7.07841        -1.522683     -0.253063     -0.317029
O       7.90616      1.90379     11.27533        -1.717873     -0.191823      0.448621
O       7.84719     13.42958     11.26014        -0.814464      0.381824      0.166014
O       7.82004      5.67881      2.69066        -0.997355      0.245250     -0.031743
O       7.95015      5.69135     15.70205        -1.192529     -0.325552      0.822615
O       7.83824      5.71848      7.16183        -0.164615     -0.169316     -0.444451
O       7.89930      5.70820     11.27666        -0.685241     -0.169508      0.153352
O       7.70848      9.68040      2.72816         0.228583     -0.058529     -0.410340
O       7.87280      9.53214     15.79517         0.223092      0.520070      0.690023
O       7.79856      9.57795      7.18540         0.093334      0.371538     -0.699695
O       7.80001      9.54237     11.42803         0.884045      0.295529     -0.062867
O      11.55035      1.87047      2.83674         0.305946      0.144922     -0.381729
O      11.68770      1.88993     15.64656         0.368624      0.054079     -0.030866
O      11.57495     13.43689      2.85578         1.337792      0.018580     -0.696813
O      11.70693     13.51237     15.86597        -0.711344     -0.358252     -0.668389
O      11.68254      1.85243      7.02603        -0.320001      0.240537     -0.036374
O      11.58982     13.41880      7.01928         0.563418     -0.028300      0.259857
O      11.68717      1.94170     11.44695         0.209823     -0.106312      0.497230
O      11.66077     13.37571     11.43154        -0.093780     -0.098111      0.255889
O      11.53943      5.69297      2.78535         0.064719      0.343000      0.159164
O      11.74829      5.76522     15.65685        -0.166030      0.066422      0.287837
O      11.74919      5.71420      6.99185         0.181754      0.579646      0.160225
O      11.70758      5.72535     11.34251         0.148678      0.000154      0.425945
O      11.52420      9.54397      2.71041         1.423958      0.088327     -0.087121
O      11.68922      9.63203     15.80237        -0.028795     -0.344959      0.386789
O      11.66895      9.48002      6.96072        -0.219543      0.185901      0.128963
O      11.62953      9.58987     11.43910         0.026822      0.406163      0.166163
O       2.03603      3.93342      2.71290        -0.492018     -1.447673     -0.116159
O       2.20603      3.74710     15.80013         0.031471      1.022273     -0.214600
O       2.06655      0.01784      2.66134        -0.420455     -0.484985     -0.374713
O       2.06272     15.33435     15.82225         0.766165      0.680662     -0.112018
O      13.55713      3.81138      2.66096         0.044413     -0.699175      0.550060
O      13.60584      3.84553     15.69175         0.360897     -0.417163      0.282627
O      13.42879     15.28978      2.64422         0.387829      0.113233      0.125213
O      13.65217     15.31532     15.82524        -0.111314      1.273380     -0.622552
O       2.00842      3.80374      7.09653        -0.026629      0.156534      0.054464
O       2.01686      0.00749      6.86106         0.149428     -1.808061      0.555503
O      13.65795      3.75902      6.93056         0.309831      1.160371      0.323195
O      13.58254     15.28698      7.03446         0.251672      0.091639      0.295101
O       2.01687      3.82226     11.32552         0.437381      0.399050      0.521345
O       2.06627     15.27060     11.55044         0.000353      0.485852     -0.163777
O      13.64284      3.86868     11.29439         0.023306     -0.017105      0.259510
O      13.62251     15.33112     11.46926        -0.197489     -0.565001      0.171414
O       2.22406      7.69762      2.55782        -1.125857     -0.585362      0.338067
O       2.03869      7.76876     15.74228         0.270719     -1.711874     -0.428722
O      13.46236      7.57762      2.63828        -0.105059      1.917527      0.533195
O      13.66828      7.61878     15.81837         0.125910      0.902432     -0.159686
O       2.06676      7.72831      7.16806         0.301637     -0.866488     -0.330792
O      13.67871      7.71727      6.95158        -0.301004     -0.824247      0.288533
O       2.10323      7.63365     11.54594         0.422537      0.009019     -0.262153
O      13.45240      7.68826     11.51518         0.696047     -0.358978      0.239492
O       1.88405     11.50613      2.56198         0.187646     -0.091126     -0.195517
O       2.09208     11.54496     15.84218         0.446813     -0.279288     -0.153403
O      13.54316     11.46808      2.56519        -0.182307      0.162982      0.160477
O      13.55274     11.54184     15.76850         0.301825      0.321930      0.342967
O       2.04051     11.43966      7.13774         0.074970      0.706295     -0.362964
O      13.51311     11.48656      6.94820         0.136585     -0.581184      0.837434
O       2.05149     11.43180     11.65800         0.217847      0.570413     -0.821429
O      13.67568     11.44825     11.48260        -0.307160      0.708829      0.051100
O       5.80641      3.85264      2.66537         0.076055      0.090745      0.090515
O       5.84187      3.85805     15.80147         0.398224     -0.049711      0.089346
O       5.85724      0.00034      2.74650        -0.328401      0.206478      0.044670
O       5.99991     15.34218     15.73932        -0.157902      0.309798      0.204282
O       5.90964      3.82438      7.01584        -0.067200     -0.755387      0.214772
O       5.95235     15.27189      6.88312        -0.066579      0.038145      0.671018
O       5.83948      3.75004     11.39657         0.372473     -0.114842      0.151806
O       5.87175     15.31341     11.36603        -0.167909      0.507531      0.070255
O       5.88251      7.71800      2.64195        -0.051194     -0.121671      0.400777
O       6.12351      7.67528     15.71745        -0.665437     -0.042566      0.514591
O       6.00934      7.60418      6.93863        -0.374946      1.132054      0.477792
O       6.00799      7.63327     11.39297        -0.162251      0.115182     -0.104060
O       5.75961     11.54952      2.81544         0.204195     -0.026937     -0.807123
O       5.92218     11.50895     15.86973         0.568390      0.068262      0.118198
O       5.82793     11.50822      6.97414         0.596595     -0.286710      0.114388
O       6.01059     11.56284     11.42029        -0.510899     -0.566654     -0.144793
O       9.75151      3.84535      2.80278        -0.446926     -0.823372     -0.379396
O       9.85810      3.83428     15.71340        -0.165502      0.653266      0.184895
O       9.64007      0.07013      2.85556        -0.003278     -0.084105     -0.369172
O       9.77428      0.08946     15.76509         0.154754     -1.076492     -0.113731
O       9.84159      3.86652      7.17754        -0.393901     -1.150900     -0.525472
O       9.74108      0.01432      6.97080        -0.525001     -0.365257      0.210376
O       9.81745      3.86835     11.32186         0.020959     -0.741629      0.687333
O       9.84308     15.34704     11.34206        -0.109082     -0.695999      0.460651
O       9.62581      7.69737      2.79433         0.024138     -0.539016     -0.280757
O       9.77000      7.60588     15.77366         0.232437      1.636410      0.630006
O       9.67101      7.68449      6.94855         0.118337     -0.109758      0.036331
O       9.82683      7.62397     11.32571        -0.173788      0.914487      0.325473
O       9.79951     11.55795      2.68350        -0.570434     -0.421426      0.041808
O       9.70590     11.53839     15.74104         0.490186      0.787367      0.700170
O       9.78992     11.50930      7.08088        -0.464655     -0.675166     -0.126022
O       9.69916     11.47807     11.29858         0.177502      0.540857      0.170946
