  # total energy = -7882.11431832 
CRSYTAL
PRIMVEC
    15.3600000000000000    0.2300000000000000    0.0000000000000000
     0.0000000000000000   15.3600000000000000    0.0000000000000000
     0.0000000000000000    0.0000000000000000    17.440000000000000
PRESSURE
1.1601 1.12218 -1.70467 0.246187 0.104961 -1.53236
PRIMCOORD
320 1
Pb       3.86356      3.93398      4.15288         0.444679      0.442981      0.300229
Pb       3.76223      3.99223     17.40600         0.282270     -0.244941      0.647369
Pb       3.77192     15.25777      4.30884         0.058216      0.215613      0.153707
Pb       3.76998     15.40085     17.43119         0.244180     -0.369954     -0.118831
Pb       0.17157      3.91898      4.38364        -1.186710     -0.429046      0.229821
Pb       0.05822      3.83457      0.09796        -0.901462     -0.001375     -0.691356
Pb      15.21328      0.32745      4.31425         0.239196     -0.396866      0.210853
Pb      15.26253     15.55146      0.04903        -0.149553      0.316526     -0.320440
Pb       3.82991      3.85322      8.55580        -0.217186      0.179951      0.183677
Pb       3.76276     15.29144      8.63711         0.046504      0.123644     -0.153045
Pb       0.10102      3.92121      8.64977        -0.571458     -0.113774      0.069449
Pb       0.02844     15.22436      8.61850         0.276733      0.418936     -0.028656
Pb       3.99247      3.90362     13.10115        -0.238040     -0.513772     -0.279408
Pb       3.69739      0.20156     13.14366         0.093079     -0.374479     -0.235777
Pb      15.33934      4.00980     13.01891         0.101477      0.500577      0.465179
Pb      15.28132      0.28283     12.99623         0.717297     -0.139244      0.453660
Pb       3.91229      7.74269      4.23306         0.015649      0.106057     -0.110885
Pb       3.74738      7.73195     17.40050         0.061675      0.757834     -0.016589
Pb      15.15722      7.76411      4.31918         0.149338      1.111566      0.413194
Pb      15.32353      7.85047     17.33817        -0.551767      0.459843     -0.243908
Pb       3.86601      7.61239      8.65633        -0.246962     -0.082801      0.138154
Pb      15.28540      7.88439      8.62738        -0.157110     -0.246477     -0.458572
Pb       3.84112      7.57750     12.97716        -0.104364      0.833081      0.243641
Pb      15.35805      7.83270     12.98623        -0.143101     -0.289189      0.843416
Pb       3.93776     11.37894      4.27834        -0.284653      0.348676      0.580086
Pb       3.89984     11.54256     17.36864        -1.005668     -0.057803     -0.009969
Pb       0.02385     11.36807      4.27121        -0.604657      0.172960      1.116821
Pb       0.09254     11.68101     17.35804        -0.327165     -0.930101      0.281130
Pb       3.73524     11.42402      8.70445         0.285550      0.405394     -0.454733
Pb      15.33952     11.72519      8.52292         0.254506     -0.421215     -0.145719
Pb       3.82549     11.55415     13.02259        -0.365668      0.063017      0.380057
Pb      15.30194     11.76301     12.90602         0.417206     -0.093665      0.514921
Pb       7.62787      3.86581      4.32146        -0.204861      0.255415      0.062828
Pb       7.61763      4.09661     17.40743         0.168181     -0.137226     -0.027747
Pb       7.66928     15.34361      4.29765        -0.491321      0.602607      0.254245
Pb       7.79713      0.19357      0.07915        -0.553494     -0.177312     -0.355738
Pb       7.63356      3.82225      8.66029         0.070489      0.407948     -0.390200
Pb       7.76775     15.31692      8.75604        -0.715563      0.369676      0.086725
Pb       7.70507      3.93551     13.00805        -0.273429     -0.225953      0.253594
Pb       7.66844     15.32584     13.13633        -0.307302      0.809543      0.049185
Pb       7.66253      7.75030      4.33211         0.053864      0.076105     -0.199003
Pb       7.72753      7.73882      0.00137        -0.065567      0.110598     -0.306116
Pb       7.71723      7.86906      8.76659        -0.007237     -0.306346      0.105730
Pb       7.66210      7.76796     13.04890        -0.122826      0.254124     -0.153326
Pb       7.76239     11.67960      4.43966        -0.570985     -0.605112     -0.456083
Pb       7.54106     11.65661     17.39106         0.627586      0.119176     -0.069703
Pb       7.57615     11.63390      8.82289        -0.242369     -0.569727      0.261678
Pb       7.62991     11.68781     13.18159         0.303474     -0.438487     -0.584547
Pb      11.45767      4.15612      4.40162         0.036120     -0.588390      0.046099
Pb      11.44623      3.99522      0.00843         0.590942      0.281676     -0.309545
Pb      11.50838      0.21601      4.42081         0.423207      0.082230     -0.239121
Pb      11.43993      0.20665     17.39309         0.707268     -0.127229      0.283789
Pb      11.40272      3.76435      8.72387         0.145818      0.789616     -0.382269
Pb      11.54890     15.47556      8.65546        -0.053107      0.030574     -0.084327
Pb      11.43625      3.91240     13.02290         0.395645      0.186410     -0.322554
Pb      11.57906      0.28479     13.03129        -0.027612     -0.184351     -0.090378
Pb      11.46971      7.77034      4.27251         0.326650      0.954745      0.266880
Pb      11.49084      7.82052     17.35463         0.513706      0.268988     -0.168592
Pb      11.53956      7.76502      8.72145        -0.179341     -0.159075      0.022360
Pb      11.41365      7.79641     13.10626         0.368345      0.116275     -0.267139
Pb      11.55647     11.67640      4.18961         0.148120     -0.860622      0.701994
Pb      11.49974     11.69336     17.35769         0.266572     -0.182960      0.121884
Pb      11.37590     11.70029      8.77327         0.231076     -0.144082     -0.127596
Pb      11.59357     11.73854     13.00871        -0.259543     -0.254188     -0.219028
Ti       1.89886      1.99707      2.34674        -0.333154     -0.631651     -0.246769
Ti       1.86340      1.94525     15.59136        -0.573945     -0.040592     -0.909177
Ti       1.87920     13.44434      2.44943        -0.541410     -0.729994     -0.905870
Ti       1.87668     13.44415     15.37642         0.573300      0.113474      0.709897
Ti      13.37879      2.18054      2.48891         0.240706     -0.486777     -0.715539
Ti      13.37314      2.16013     15.43862         0.371524     -0.229417     -1.233868
Ti      13.43956     13.61048      2.39055        -0.374879      0.361517      0.527083
Ti      13.38955     13.66357     15.32414         0.318278      0.216267      0.060488
Ti       1.85000      1.90883      6.57044        -0.183943     -0.308333     -0.407386
Ti       1.90935     13.43271      6.54964         0.167193     -1.369956      0.600405
Ti      13.41544      2.11059      6.68404         0.037407      0.185694     -0.959427
Ti      13.41489     13.62180      6.71323         0.509634     -0.327689     -0.846976
Ti       1.94147      1.96638     11.02931         0.497341     -0.556636     -0.911870
Ti       1.88294     13.36491     10.89938         0.824199      1.660642      0.633717
Ti      13.54098      2.07436     10.95526        -1.432955      0.979072      0.505478
Ti      13.48497     13.65250     10.90435        -0.663923     -0.460905     -0.011379
Ti       1.83908      5.84843      2.30635         0.746976      0.549168      0.561416
Ti       1.87422      5.75478     15.40932        -1.128589      0.632735     -1.185666
Ti      13.40791      5.85344      2.33482        -0.030366      0.760880     -0.563256
Ti      13.41547      5.92617     15.35612         0.568682      0.217411      0.739766
Ti       1.91578      5.74201      6.51092        -0.025295      0.291990      0.132815
Ti      13.36899      5.90020      6.55275         0.313057      0.218585     -0.053947
Ti       1.95081      5.72961     11.04430        -0.314977     -0.283159     -1.001089
Ti      13.41022      5.86849     11.09113        -0.004548      0.411861     -0.935443
Ti       1.89227      9.56410      2.30565         0.015764      1.055008     -0.053204
Ti       1.82117      9.60271     15.36015         0.339896      0.116483      0.143133
Ti      13.44445      9.76261      2.22652         0.101036     -0.181458      0.635045
Ti      13.42625      9.84012     15.32583        -0.187784     -0.738679      1.514872
Ti       1.90065      9.47596      6.63326        -1.307725      1.469571     -0.054236
Ti      13.29983      9.82412      6.72569         1.376631     -0.405812     -2.124971
Ti       1.85095      9.54266     11.02190         1.470404     -0.105239      0.895614
Ti      13.50809      9.71340     10.95982        -1.971830     -0.160546     -0.391462
Ti       5.72377      1.90611      2.26425         0.806777      0.672819      0.476351
Ti       5.69949      2.06634     15.62944         0.423757     -0.951050     -1.822323
Ti       5.71136     13.45752      2.34191         0.211269      0.061858     -1.299911
Ti       5.75985     13.51029     15.42648        -0.976762      1.448559      0.160800
Ti       5.62123      1.99274      6.59553         0.936675     -0.397208      0.266380
Ti       5.77949     13.53119      6.81431        -1.401349     -1.360191     -0.961357
Ti       5.78726      1.99445     10.95171        -0.635443      0.113876     -0.018295
Ti       5.69721     13.57983     11.10498        -0.058310     -0.362448     -1.922723
Ti       5.77039      5.86384      2.16426         0.236355      0.709409     -0.206271
Ti       5.66196      5.95059     15.41785         1.054622      0.126367     -0.073762
Ti       5.82030      5.83670      6.57637        -0.074763     -0.157043     -0.431532
Ti       5.78751      5.78597     11.02060         0.343264      0.785574      0.276839
Ti       5.84810      9.64096      2.18024        -1.122663      0.244383      1.527696
Ti       5.74468      9.73818     15.35094        -0.731545     -0.962192     -0.746893
Ti       5.68410      9.62000      6.75774         0.653310      1.219192     -1.513362
Ti       5.71323      9.72268     11.21937         0.306248     -0.564170     -1.095208
Ti       9.59162      2.08822      2.44105        -0.164364      0.051548      0.101889
Ti       9.54978      2.08038     15.42801        -0.124936      0.161846     -0.588014
Ti       9.63632     13.61162      2.41016        -0.403935     -0.567968     -0.209626
Ti       9.60277     13.61079     15.36310         0.011428     -0.756187     -0.838384
Ti       9.45353      1.98821      6.64193         0.307941      1.172415     -0.872700
Ti       9.50195     13.57315      6.70116         1.041027     -1.035450      0.032652
Ti       9.54844      2.02643     10.99405         0.463791      0.486707     -0.823541
Ti       9.58288     13.66566     11.13498         0.284041     -1.114455     -0.359509
Ti       9.59621      5.90710      2.29049        -0.780282     -0.083563     -1.192430
Ti       9.57723      5.86874     15.42457         0.685809      1.188389     -0.587114
Ti       9.57303      5.96019      6.69982        -0.296332     -0.575494     -0.054950
Ti       9.56996      5.92977     11.08486         0.868864      0.177815     -1.325418
Ti       9.61249      9.68287      2.29458         0.605998      0.476454      0.077498
Ti       9.60965      9.76907     15.39698         0.337667      0.210957     -0.838569
Ti       9.55791      9.78115      6.79540         0.135924     -0.584506     -2.078067
Ti       9.59204      9.85777     11.17665         0.002305     -0.776312     -0.912965
O       1.92633      2.01699      0.55995        -0.358268     -0.000004      0.479303
O       1.87539      1.87137     13.80943         0.267826      0.203559     -0.157081
O       1.76193     13.39564      0.63138         0.390478      0.133858      0.822965
O       1.84895     13.49466     13.66896        -0.110001      0.150926     -1.173536
O      13.42476      2.01562      0.72025        -0.424328      0.581494     -0.508684
O      13.30881      2.09308     13.59250         0.405919     -0.111350      0.796922
O      13.30340     13.66306      0.65783         0.377993      0.287647     -0.815415
O      13.42237     13.85090     13.56381         0.241516     -0.512872      0.124487
O       1.82424      1.89800      4.77414         0.622997      0.430167      0.566947
O       1.90935     13.41423      4.80318         0.271752      0.572893     -0.771707
O      13.38490      2.04231      4.85094        -0.036905     -0.006963      1.370392
O      13.53196     13.77667      4.95015        -0.760875     -0.182508      0.005106
O       1.85299      1.87053      9.24290         0.363758      0.508851      0.625532
O       1.82947     13.49937      9.13282         0.457852     -0.183177      0.517859
O      13.57992      2.04886      9.23368        -0.415183      0.189516     -1.054990
O      13.47749     13.57818      9.11691        -0.140438      0.421408      1.184003
O       1.79220      5.91692      0.52342         0.370232     -0.452429      0.288854
O       1.76369      5.78698     13.61596         0.785498     -0.335766      0.805391
O      13.41305      5.81184      0.52867         0.029246     -0.012865      0.933156
O      13.53644      5.88624     13.61121        -0.345124     -0.052423     -0.574375
O       1.79532      5.81246      4.67711         0.543121     -0.117522      1.931414
O      13.44823      5.89536      4.70435        -0.306224      0.197087      2.033872
O       1.95559      5.61138      9.22931        -0.214996      0.276642      1.081434
O      13.42425      5.83730      9.29107        -0.195894      0.355314      0.837781
O       2.00803      9.56182      0.53233        -0.452977      0.258675      0.351882
O       1.88219      9.56866     13.61225        -0.342888      0.389607     -0.431984
O      13.46173      9.77930      0.49904        -0.318057     -0.079915     -0.110906
O      13.37476      9.71409     13.61080         0.208580      0.453960     -1.573186
O       1.97960      9.58754      4.89292         0.085507     -0.551328      0.141079
O      13.38830      9.81862      4.87692        -0.474624     -0.041207      1.585575
O       1.92962      9.52378      9.29452        -0.161416     -0.066180     -0.286324
O      13.50821      9.67561      9.16172        -0.109768      0.030890      0.801943
O       5.70617      1.89273      0.50208         0.553554      0.219485     -0.520987
O       5.74586      2.14593     13.80126        -0.238078      0.012424      1.142167
O       5.77970     13.52511      0.52636        -0.042337     -0.374298      0.527650
O       5.74952     13.48149     13.67166         0.179631      0.023582     -0.949466
O       5.77726      2.03206      4.85110        -0.452827     -0.139851      0.041856
O       5.90649     13.37071      5.02295        -0.262551      0.533017      0.153288
O       5.57843      2.12031      9.16778         0.682521     -0.512624      0.745154
O       5.79250     13.61137      9.15176        -0.463598     -0.053057      2.556913
O       5.76859      6.09530      0.33574         0.208387     -0.766867      0.968422
O       5.78732      5.90142     13.59399        -0.218231     -0.443577      1.006928
O       5.89930      5.95275      4.78071        -0.111570     -0.068891      0.779057
O       5.86177      5.83364      9.28772        -0.302235     -0.209184     -0.473776
O       5.79994      9.71641      0.44139        -0.064457      0.278079     -0.820696
O       5.70749      9.79794     13.53869         0.093435      0.026094      0.763743
O       5.75353      9.63621      4.90816        -0.218793     -0.152014      1.696938
O       5.67446      9.77922      9.42196         0.002944     -0.491486     -0.166721
O       9.55631      2.02162      0.66948         0.046729      0.230101     -0.580563
O       9.55285      2.07265     13.66783        -0.071130      0.132434     -0.271250
O       9.60411     13.55779      0.67136        -0.038543      0.272436     -0.584209
O       9.61773     13.57625     13.56020        -0.146519      0.198867      0.659405
O       9.46112      2.07405      4.82304         0.233593     -0.213135      1.303646
O       9.39718     13.46292      4.92158         0.304849      0.300768      0.227965
O       9.49134      1.99541      9.18092         0.133662     -0.155324      0.134255
O       9.57027     13.54578      9.32729         0.146400      0.481666      0.255863
O       9.57332      5.97511      0.44389         0.183315     -0.341671      0.881782
O       9.63592      5.96075     13.63345        -0.300832     -0.341320      0.068412
O       9.53661      5.98941      4.91369        -0.011037      0.015309      0.136576
O       9.61022      6.09855      9.29405         0.016333     -0.476688      0.388064
O       9.75787      9.65240      0.54364        -0.739997      0.294003     -0.190491
O       9.67193      9.86002     13.58304         0.054470     -0.191142      0.624368
O       9.69691      9.72046      4.95359        -0.594199      0.148831      1.316009
O       9.59081      9.76588      9.38098        -0.327375      0.180424     -0.215457
O       3.92015      2.25493      2.58580        -1.437668     -0.583863      0.285559
O       3.77980      2.06244     16.03273         0.587242     -0.467270     -0.551712
O       3.83201     13.50214      2.69355        -0.796121     -0.409529      0.293927
O       3.78008     13.56957     15.73059         0.140452     -0.370846      0.556177
O      15.34765      2.18723      2.67671         0.561796      0.061901      0.163670
O      15.22622      2.19400     15.86314         1.229902      0.018594      0.339727
O      15.28862     13.56004      2.77401         0.683232      1.391855     -0.252319
O      15.35722     13.61050     15.74904        -1.278992      0.653194      0.320262
O       3.73144      1.95734      7.00999         0.598278      0.078082     -0.170720
O       3.77513     13.38546      7.08075         0.226542      0.863974      0.024653
O      15.31455      2.23444      6.88814         0.238763     -0.640350      0.430003
O       0.01853     13.28700      6.97778        -0.490302      0.941131      0.465109
O       3.85820      1.99384     11.50858         0.350661     -0.218125      0.013963
O       3.79880     13.52136     11.56491         0.731652      0.449985     -0.923541
O       0.01370      1.95065     11.39496         0.585236      0.234466      0.337016
O       0.02937     13.37453     11.28270        -0.274501      0.593754      0.343559
O       3.88121      5.83508      2.63253        -0.744066     -0.420593     -0.069024
O       3.79188      5.90727     15.87755        -0.080408     -0.155779     -0.749253
O      15.33579      6.02955      2.74353         0.208750     -0.347496     -0.735033
O      15.34215      5.90818     15.79326         0.253941     -0.144828      0.374741
O       3.84887      5.73637      6.86168        -0.624346      0.194444      0.179778
O      15.27008      5.86125      7.02222         0.379280      0.231589     -0.422685
O       3.90701      5.83448     11.32015        -0.499783      0.075409      0.478839
O       0.04300      5.70169     11.49347        -0.468534     -0.376586     -0.555286
O       3.87169      9.64422      2.73950        -0.162100      0.328885     -0.369570
O       3.76952      9.69844     15.79508         0.489586     -0.088743     -0.029606
O      15.32277      9.79377      2.71292         0.294312     -0.425807     -0.217215
O      15.23143      9.82841     15.92001         1.406839      0.342956     -0.692789
O       3.72047      9.57854      7.20377         0.997545     -0.493942     -0.246897
O      15.29497      9.78294      7.00190         0.655506     -0.307694      0.437900
O       3.82855      9.54866     11.54837        -0.860875      0.364162     -0.183707
O      15.34919      9.74829     11.40099         0.310943      0.506728      0.102582
O       7.64489      1.83302      2.79839        -0.120200      0.864780     -0.590636
O       7.69525      2.09754     15.89776        -0.711897     -0.021500      0.380488
O       7.56306     13.54774      2.72313         1.711973      0.335888      0.199012
O       7.65907     13.54041     15.69521         0.565123     -0.253891      0.454739
O       7.61650      1.89884      7.05190        -0.215392      0.678044      0.020760
O       7.65634     13.38529      7.23320         0.350637      0.598962     -0.417798
O       7.69349      2.21487     11.40266        -0.659842     -0.722662     -0.166662
O       7.69652     13.63507     11.43271        -1.125971     -0.527708      0.332174
O       7.63743      6.08306      2.57079         0.646999     -0.116727     -0.053564
O       7.71796      5.94381     15.85156        -1.123152     -0.046224     -0.298853
O       7.63965      5.90067      7.11440         0.329731     -0.103879     -0.080966
O       7.72323      5.80336     11.44389        -0.380314      0.137032      0.337671
O       7.66291      9.68505      2.62768         0.774772     -0.248673     -0.054631
O       7.64501      9.86393     15.64702         0.420124     -0.119745      0.297497
O       7.60763      9.81357      7.19888        -0.143085     -0.639463     -0.252991
O       7.62571      9.84209     11.57767         0.703704     -0.394018      0.008937
O      11.47101      2.27317      2.81145        -0.532251     -0.209558      0.102556
O      11.42089      2.18972     15.76826         0.331786     -0.569197      0.636442
O      11.46429     13.68667      2.81571         0.610376     -0.549084      0.204488
O      11.49415     13.66793     15.73020         0.155796      0.123500      0.227193
O      11.48895      1.94653      7.05167        -0.684212     -0.068351      0.222913
O      11.50723     13.60596      7.07446        -1.225433      0.062957     -0.023593
O      11.47273      2.05994     11.24475         0.618300     -0.419047      0.469288
O      11.56735     13.73453     11.48079         0.228784     -0.378695     -0.684370
O      11.49635      5.91366      2.74319        -0.267615     -0.494575     -0.317873
O      11.57748      5.90609     15.78193        -1.383761     -0.018553      0.078980
O      11.48424      5.95582      7.08465         0.084195     -0.060778     -0.318947
O      11.47752      5.86465     11.60709         0.346449      0.500798     -0.462733
O      11.55727      9.76125      2.62097        -0.255336     -0.220375      0.429801
O      11.53048      9.77571     15.83505        -0.350128     -0.141756     -0.083724
O      11.46776      9.77938      7.14016        -0.267313     -0.169393      0.418829
O      11.56050      9.84036     11.29663         0.199842      0.185311      0.586339
O       1.82030      3.95501      2.78030         0.709762     -0.658462     -0.808657
O       1.97827      3.88426     15.89631        -0.460109      0.424750      0.031492
O       1.95516      0.07056      2.73655         0.128481     -0.054135     -0.274116
O       1.80893      0.10218     15.92502         0.308020     -1.044566      0.133403
O      13.39511      4.05411      2.89966         0.369059      0.088884     -0.478664
O      13.39208      3.97769     15.79972        -0.223127      0.649480      0.316653
O      13.31173      0.30440      2.84865         0.326432     -1.366507     -0.027212
O      13.41057      0.22198     15.85515        -0.154472     -0.357251      0.092456
O       1.82176      3.86606      7.03140         0.692584     -0.139617     -0.590016
O       1.89855     15.34784      6.94684        -0.302592      0.583605      0.134302
O      13.28667      3.98131      7.03734        -0.034941     -0.026127     -0.143178
O      13.46963     15.48550      7.25136        -0.043364      0.791863     -0.760376
O       2.08674      3.88804     11.52386        -0.736040     -0.595690     -0.132906
O       1.96750      0.06388     11.42184        -0.395844     -0.236532      0.078339
O      13.38485      4.01421     11.45485         0.231550     -0.727341      0.062067
O      13.52073      0.23967     11.41785        -0.091231     -0.957145     -0.409996
O       1.97383      7.77227      2.73768        -0.249659     -1.615231     -0.196526
O       1.79123      7.72589     15.66055         0.251475     -0.764075      0.716488
O      13.43950      7.78067      2.77455        -0.464467      0.684644     -0.713715
O      13.45062      7.85275     15.73692        -0.124138     -0.344638      0.102041
O       1.85990      7.54395      7.18521         0.154493      0.298068     -0.769333
O      13.46438      7.80447      6.93552        -0.404260     -0.021071      0.365521
O       1.88309      7.63836     11.46026         0.264702      0.308700     -0.340991
O      13.43745      7.81502     11.44416        -0.124590      0.504339     -0.330994
O       1.78145     11.48925      2.86749         1.311701      0.341640     -1.129962
O       1.87303     11.52489     15.72639        -0.036899      0.436650      0.383568
O      13.49338     11.72797      2.65624        -0.890421     -0.389131      0.120548
O      13.36837     11.73999     15.60812        -0.048527      1.002524      0.154273
O       1.84183     11.49693      6.92515         0.439937     -0.780002      0.573864
O      13.40649     11.70196      7.14917        -0.314846     -0.120277     -0.230474
O       2.00718     11.56599     11.38942        -0.582719     -0.983977     -0.158235
O      13.56201     11.73042     11.34177        -0.639415      0.203729      0.024071
O       5.93749      4.04040      2.65418        -0.334934     -0.998160     -0.376419
O       5.67557      4.05204     15.91906         0.312961     -0.542790     -0.127381
O       5.58715      0.08828      2.69705         0.220077     -0.364866      0.193398
O       5.68465     15.43063     15.77612         0.266489      0.628891      0.325256
O       5.76201      3.91962      6.93576         0.056850     -0.574204      0.241587
O       5.72076     15.38514      7.04565        -0.214483      0.797922     -0.090517
O       5.75494      3.85859     11.43477        -0.126354      0.912129      0.282349
O       5.89887      0.15894     11.48697        -0.597101     -0.533561     -0.227395
O       5.63950      7.78676      2.50302         0.393055      0.233898      0.541509
O       5.70720      7.85429     15.67035         0.275764     -0.379267      0.055129
O       5.72131      7.70515      7.05808        -0.124903      0.728164      0.320885
O       5.83384      7.75222     11.46222         0.094600     -0.323782      0.110710
O       5.76107     11.60298      2.78783         0.081816     -0.462061     -0.757322
O       5.69042     11.61074     15.86814         0.117041      0.307926     -0.151341
O       5.55607     11.53521      7.16944         0.593746     -0.457383      0.079556
O       5.72352     11.66418     11.39721        -0.115780      0.930689      0.465353
O       9.49095      4.08295      2.81730        -0.159121     -0.799864     -0.378844
O       9.55245      4.06083     15.82092         0.013349     -1.216194      0.148939
O       9.72341      0.19920      2.73859        -0.646392     -0.890353      0.215785
O       9.56700     15.49040     15.80305        -0.172232      0.425824      0.203024
O       9.54817      3.99618      7.03650         0.044766     -0.923740      0.273755
O       9.44536     15.43530      7.01290         0.458148     -0.242189      0.036082
O       9.65769      3.93350     11.22856        -0.138806      0.687400      0.703822
O       9.45931      0.16336     11.51318         0.396134      0.283961     -0.120157
O       9.67999      7.72992      2.64692        -0.223380      1.668313      0.430584
O       9.59580      7.87874     15.71806         0.077955     -0.108448      0.226515
O       9.52863      7.82556      7.09008        -0.047867      0.685974      0.423050
O       9.59464      7.88414     11.40653        -0.177113     -0.337697      0.788841
O       9.68063     11.57353      2.75910        -0.705344      0.969272     -0.221992
O       9.72395     11.69818     15.81793        -0.734694      0.288319     -0.018792
O       9.53596     11.62475      7.22419         0.424168      0.845193     -0.223837
O       9.54986     11.73632     11.51396         0.544332      0.280586      0.062187
