  # total energy = -7879.48889877 
CRSYTAL
PRIMVEC
    15.3600000000000000    0.0000000000000000    0.0000000000000000
     0.0000000000000000   15.3600000000000000    0.0000000000000000
     0.2400000000000000    0.0000000000000000    17.440000000000000
PRESSURE
0.441867 0.285855 0.501649 0.007783 -1.1174 0.000911
PRIMCOORD
320 1
Pb       3.82712      3.78841      4.33414        -0.414105      0.350264     -0.200900
Pb       4.00029      3.81303     17.40991         0.094296      0.571036     -0.280469
Pb       3.83967      0.06166      4.25913        -0.234096     -0.535281     -0.536066
Pb       4.18557     15.29533     17.41125        -0.399227      0.057538     -0.336960
Pb      15.41469      3.91525      4.37532         0.389691      0.007457     -0.546076
Pb      15.45501      3.81561     17.38776         0.009711     -0.048344     -0.437154
Pb      15.41036     15.22124      4.28282        -0.000256     -0.046852     -0.470257
Pb       0.39492      0.05243     17.38063        -0.439118     -0.209679     -0.299996
Pb       3.78355      3.84466      8.79792         0.193024      0.286671     -0.958814
Pb       4.00272      0.03269      8.62282        -0.433664     -0.417033     -0.768079
Pb      15.41405      3.81005      8.80056         0.189802      0.293126     -1.056596
Pb       0.18863     15.34267      8.69027        -0.398348     -0.062892     -0.407134
Pb       4.06066      3.70494     13.04539        -0.592214      0.535499     -0.382866
Pb       3.96068     15.30941     12.91687         0.049679     -0.008264      0.205484
Pb      15.45472      3.70184     13.12673         0.597127      0.224430     -0.435823
Pb      15.47427     15.21422     13.02739         0.116110      0.086359     -0.682119
Pb       3.93133      7.67679      4.32585        -0.338513      0.027101     -0.004207
Pb       3.98921      7.81085      0.05793        -0.142840     -0.979472     -0.500195
Pb      15.40957      7.73046      4.32014        -0.550103      0.024419     -0.538673
Pb       0.02904      7.57803      0.07827        -0.616798      0.103242     -0.675190
Pb       3.93646      7.72144      8.74484         0.285027      0.195785     -1.029590
Pb       0.16607      7.67016      8.70589        -0.518795     -0.411728     -0.754199
Pb       3.92855      7.62598     13.22914        -0.290714     -0.421077     -1.097795
Pb       0.27172      7.74164     13.07544        -0.413269     -0.602358     -0.153564
Pb       3.91914     11.50687      4.34733        -0.080720      0.404537     -0.567249
Pb       3.99494     11.48363     17.32849        -0.009593     -0.070573     -0.375276
Pb      15.27612     11.41575      4.31272        -0.161804      0.032228     -0.530661
Pb      15.31629     11.48105      0.00359        -0.030650      0.145036     -0.940022
Pb       3.91662     11.47370      8.62179         0.481020      0.090730     -0.235814
Pb       0.15241     11.60837      8.70088        -0.103555      0.085092     -0.726110
Pb       4.00618     11.51216     13.11446        -0.310645      0.124096     -1.306012
Pb      15.44395     11.43089     13.06521        -0.059225      0.264883     -0.451199
Pb       7.71453      3.83346      4.41773        -0.064671     -0.134775     -0.419318
Pb       7.77150      3.74593     17.40836         0.178286      0.275581     -0.354117
Pb       7.60823     15.26152      4.41509         0.508450      0.104020     -0.675510
Pb       7.64398     15.33435      0.04350         0.109197     -0.050980     -0.711915
Pb       7.82215      3.76802      8.75583        -0.126372     -0.476266     -0.851654
Pb       7.71425      0.01325      8.67954         0.542945     -0.105042     -0.931135
Pb       7.85653      3.96246     12.92532        -0.063962     -0.828004      0.318731
Pb       7.86938      0.00249     13.02737         0.235362      0.060929     -0.492357
Pb       7.74134      7.54211      4.32422        -0.287381      0.333376      0.037322
Pb       7.95762      7.73958     17.40308         0.025617     -0.150588     -0.063600
Pb       7.76041      7.71616      8.71164        -0.007608      0.201488     -1.170879
Pb       7.84481      7.70913     13.09329         0.308870     -0.116719     -0.402802
Pb       7.86497     11.48085      4.39271        -0.361656      0.323115     -0.256392
Pb       7.62316     11.61742      0.00004         0.340277     -0.504468     -0.507811
Pb       7.73441     11.45111      8.62735         0.026819      0.091935     -0.185711
Pb       7.80625     11.58248     13.03951         0.616302     -0.406232     -0.576220
Pb      11.59532      3.91533      4.40208         0.044543     -0.146818     -0.696334
Pb      11.74208      3.89620     17.42372         0.088950     -0.160415     -0.147570
Pb      11.53594      0.06852      4.39400         0.105431     -0.350679     -1.009230
Pb      11.49608      0.10010      0.08849         0.335321      0.343084     -0.468883
Pb      11.71387      3.82840      8.76466        -0.097681      0.091960     -0.517068
Pb      11.63833      0.02968      8.66745        -0.250710      0.005752     -0.318247
Pb      11.62473      3.71416     12.98833        -0.102490      1.143161     -0.172370
Pb      11.63588     15.31390     13.04200        -0.465339     -0.670345     -0.731061
Pb      11.50575      7.60518      4.27436         0.640536      0.414795      0.022098
Pb      11.62612      7.62354     17.35466         0.758649      0.098833     -0.058593
Pb      11.58059      7.65802      8.76236         0.332710      0.303242     -1.006364
Pb      11.81477      7.61748     13.00808        -0.281998     -0.373172     -0.244037
Pb      11.65188     11.42130      4.29613        -0.103744     -0.083540     -0.397517
Pb      11.48179     11.61322      0.00267         0.068573     -0.791841     -0.545673
Pb      11.54421     11.52257      8.79164        -0.126720     -0.453344     -0.983728
Pb      11.65290     11.42363     13.06097        -0.346717      0.386531      0.188596
Ti       1.88572      1.90599      2.21378         0.868523     -0.516083     -0.085409
Ti       2.22201      1.85843     15.36685        -1.242813      0.175424      0.506297
Ti       1.98215     13.33876      2.16791        -0.759318      0.884866      0.558267
Ti       2.14559     13.41474     15.29746        -0.908921      0.034997      0.692618
Ti      13.53742      1.86896      2.34929        -1.039834      0.282925     -0.572208
Ti      13.62212      1.92015     15.28194         0.537061      0.216573      1.609737
Ti      13.52514     13.44293      2.18622        -0.830958     -0.526118      1.158515
Ti      13.62648     13.55848     15.35646         1.120161     -1.000705      1.240732
Ti       1.93362      1.89576      6.53135         0.426759      0.241731      0.259302
Ti       1.98668     13.47980      6.59127         0.011153     -0.088628      1.652645
Ti      13.51579      1.91206      6.57600        -0.271972     -0.273427     -1.279224
Ti      13.42815     13.43735      6.70060         1.440387     -0.147249     -0.146652
Ti       2.02515      1.86357     10.88943        -0.311960      0.696100      1.467784
Ti       2.04480     13.50040     10.88602         0.248570     -1.117953      0.948389
Ti      13.52427      1.90112     11.02699         1.003822     -0.550652      0.806098
Ti      13.57672     13.36072     10.86916        -0.477386      1.099290      1.672122
Ti       1.98312      5.74951      2.33876        -0.258585      0.026040      0.473251
Ti       2.13982      5.74276     15.40696         0.244016     -0.417570     -1.251225
Ti      13.45308      5.68249      2.31614        -0.067568      1.156526     -0.684571
Ti      13.60604      5.75596     15.30640         0.226908      0.434125      4.133122
Ti       2.00589      5.72568      6.71796        -0.868130      0.474534     -1.466214
Ti      13.49165      5.71580      6.67027         0.567790      1.476428      0.275664
Ti       2.08156      5.70840     11.02270        -0.352799      0.033004      0.059966
Ti      13.69202      5.69289     10.98371        -1.442442      0.743829      1.992914
Ti       1.94101      9.56732      2.19844        -0.713044      0.457007      1.836080
Ti       2.07377      9.50625     15.39448        -0.182727      0.314450      1.353337
Ti      13.37476      9.56059      2.14900        -0.197244     -1.130227      0.807889
Ti      13.61939      9.63010     15.45659        -0.459633     -0.538425      1.403672
Ti       1.95375      9.63364      6.62487         1.068939     -0.269783      1.165792
Ti      13.55329      9.62812      6.82999        -1.174719     -1.261310     -1.793051
Ti       2.03299      9.60946     10.88129         0.508312      0.365825      2.725689
Ti      13.53880      9.56661     10.99699         0.635117     -0.757558     -1.441844
Ti       5.79309      1.93550      2.34773         0.082585     -0.965689     -0.636810
Ti       5.89598      1.78149     15.27190         1.165144      0.300321      0.562523
Ti       5.84017     13.45040      2.22972        -0.300973     -0.465166      0.988146
Ti       5.94547     13.26012     15.27837         0.471912      1.637611      1.083338
Ti       5.82888      1.89663      6.60648         0.572449      0.069047      1.411599
Ti       5.88138     13.42933      6.64046        -0.623777     -0.548201      0.601864
Ti       5.86724      1.86435     10.96128         0.529097      0.444748      1.017749
Ti       5.90266     13.44443     10.91673        -0.454230     -0.769448     -0.194909
Ti       5.78220      5.70880      2.40815        -0.241996      0.942512     -0.257538
Ti       5.95141      5.72424     15.32725        -0.553391      0.308055      1.892404
Ti       5.85057      5.68476      6.63404        -0.299765      0.321078      0.593301
Ti       5.90199      5.74470     10.91445        -1.005167      0.113235     -0.093659
Ti       5.78741      9.62959      2.33896         0.039117      0.235832      0.828088
Ti       6.00990      9.47950     15.21791        -0.183556      1.162627      1.637235
Ti       5.87421      9.59007      6.51875        -0.384859     -0.205654      2.264178
Ti       5.88867      9.52759     11.08606        -0.730497      0.922046     -0.860825
Ti       9.63209      1.89429      2.40181        -0.042434     -0.400612      0.579794
Ti       9.75467      1.94291     15.39168         0.305308     -0.461486      0.169797
Ti       9.67234     13.35216      2.25115        -0.042352      0.579388      1.590284
Ti       9.84493     13.44946     15.43970        -0.645941     -1.408377     -0.950350
Ti       9.71738      1.89058      6.53356        -0.802888     -0.289808      3.089666
Ti       9.75190     13.37855      6.73967        -1.730230     -0.008774      0.356892
Ti       9.73461      1.90556     10.98819        -0.758816     -0.306014      1.310983
Ti       9.72803     13.30172     10.92572         0.511758      1.398493      1.677908
Ti       9.58637      5.63746      2.28374        -0.288137      0.971845     -0.914366
Ti       9.71678      5.68540     15.29150         0.825369      0.915237      0.794680
Ti       9.67649      5.64450      6.70185         0.212989      1.199861      0.205996
Ti       9.70176      5.80149     10.93526         1.987084     -0.294435      4.683855
Ti       9.53826      9.52409      2.43236         0.653241      0.307711     -1.155086
Ti       9.77278      9.56160     15.35623         0.901472      1.007187      0.597394
Ti       9.70480      9.51740      6.61820        -0.026040      0.053837      1.939521
Ti       9.72727      9.51889     10.98334        -0.382160      0.812902      0.260396
O       1.87492      1.86541      0.39734         0.217798      0.472508      0.389025
O       2.26181      1.81015     13.61468        -0.031132      0.191169     -0.623092
O       1.91572     13.37086      0.41000         0.328366     -0.127253     -0.327037
O       2.12231     13.51039     13.50083        -0.267818     -0.229194      0.403346
O      13.53101      1.88891      0.56246         0.008343      0.207961      0.201934
O      13.65640      2.01375     13.51865        -0.235680     -0.445476     -0.800259
O      13.35504     13.43542      0.47268         0.448158     -0.182471     -0.933161
O      13.65860     13.49652     13.58506         0.016037      0.193665     -0.025479
O       1.94612      1.91640      4.74502         0.012993     -0.091436      0.931241
O       1.83504     13.44901      4.88543         0.079538      0.029508     -1.588245
O      13.44793      1.81544      4.74563         0.185905      0.309716      0.993606
O      13.66539     13.36908      4.93492        -0.680536      0.191572     -0.323386
O       1.89026      1.96187      9.16420         0.459354      0.111941     -1.455004
O       2.08221     13.71401      9.14273        -0.264289     -0.818116     -0.205749
O      13.39925      1.96586      9.32185        -0.020819      0.122586     -2.176255
O      13.54267     13.36177      9.13401        -0.143037     -0.116466     -0.623542
O       2.07331      5.78112      0.59532        -0.354151      0.051646     -0.412435
O       2.16834      5.80579     13.51054         0.239915     -0.274869      1.838353
O      13.37263      5.56571      0.54415         0.342865      0.123536      0.152328
O      13.55235      5.65421     13.65456         0.070474     -0.047298     -3.443308
O       1.90085      5.65835      4.84445         0.047006      0.199590      1.174646
O      13.37707      5.80289      4.90534         0.611467     -0.486817     -0.961392
O       1.86061      5.66385      9.16098         0.907215     -0.205903      1.047183
O      13.48960      5.80713      9.28782         0.441403     -0.035251     -2.028010
O       1.90137      9.50447      0.46491         0.249459      0.089039     -0.934957
O       2.08104      9.52120     13.66202        -0.142277      0.048156     -1.307216
O      13.30821      9.50448      0.41957         0.159481      0.554317     -1.050254
O      13.59558      9.58151     13.71447         0.072678      0.191840     -1.778311
O       1.92457      9.66319      4.89931        -0.305448      0.019249     -0.711644
O      13.46699      9.49385      4.95332         0.500547      0.713036      1.077077
O       2.09467      9.58694      9.19042        -0.104474     -0.249422     -1.838128
O      13.52502      9.46818      9.13573         0.050589      0.492393      1.720453
O       5.75949      1.81758      0.55291         0.335384      0.276706      0.234360
O       5.86705      1.85367     13.51377        -0.060976      0.069345     -0.094997
O       5.85544     13.45127      0.44813        -0.207579      0.016057     -0.095013
O       5.83502     13.30391     13.52021         0.351114     -0.096991      0.009612
O       5.91809      1.76559      4.90663        -0.224587      0.152464     -2.462457
O       5.70552     13.35551      4.89589         0.586469      0.307393     -0.497850
O       5.96291      1.94743      9.23618        -0.039118     -0.138886     -1.553048
O       5.82102     13.40636      9.12110        -0.148113      0.408599      0.896432
O       5.74343      5.88447      0.68113         0.341904     -0.318842     -0.834902
O       5.81721      5.74568     13.63053        -0.424431      0.262126     -2.243123
O       5.87731      5.61971      4.88257        -0.313874      0.333835     -0.877800
O       5.78265      5.71427      9.10944         0.387417      0.063388      0.893117
O       5.86302      9.57817      0.59681        -0.081767     -0.008607     -0.741116
O       5.95245      9.44069     13.48421        -0.236721      0.432710     -1.440063
O       5.84863      9.70339      4.81896        -0.317600      0.053901     -1.523745
O       5.69847      9.58991      9.29261         0.792949     -0.382800      0.335796
O       9.64280      1.94674      0.67267        -0.520679     -0.259405     -1.790683
O       9.67601      1.90635     13.63884         0.489314     -0.311948     -0.124724
O       9.45074     13.36329      0.50503         0.493748     -0.099288     -0.567754
O       9.84833     13.45996     13.65661        -0.023096      0.139145     -0.425743
O       9.56963      1.98388      4.83757         0.450854     -0.069909     -1.840998
O       9.74301     13.22954      5.01573         0.023225      0.419003     -1.082595
O       9.62913      1.98746      9.26473         0.504876     -0.198289     -0.526853
O       9.85816     13.37229      9.20932        -0.347774      0.004478     -0.798224
O       9.42240      5.64602      0.48679         0.272029      0.165252      0.471309
O       9.86542      5.79045     13.55198        -0.185300     -0.154112     -0.081561
O       9.75252      5.63680      4.95619        -0.385880     -0.260962     -1.017745
O       9.68679      5.80922      9.29736        -0.219979     -0.248019     -4.640083
O       9.49017      9.60186      0.65401        -0.187508     -0.272337     -0.569069
O       9.79785      9.64229     13.63101         0.368604     -0.513128     -1.380541
O       9.59695      9.50235      4.90333         0.133055      0.353887     -1.844659
O       9.58016      9.58367      9.23295         0.296763     -0.274334     -0.260301
O       3.80717      1.92872      2.65598         1.391890     -0.104094      0.324530
O       4.10731      1.94339     15.80582         0.203382     -0.033354      0.007236
O       3.76829     13.40154      2.64460         1.835730      0.084253      0.093906
O       4.02992     13.43610     15.71704         0.924925     -1.035854      0.131345
O       0.09481      1.86886      2.62660        -1.225602      0.201069      0.378954
O       0.26242      1.94441     15.51144        -0.004361     -0.131586      0.617351
O      15.38584     13.48480      2.55901         0.200361     -0.338703      0.303986
O       0.27575     13.57007     15.78934        -0.386090     -0.253980     -0.475124
O       3.94104      1.80057      6.86891        -0.896662      0.401908      0.473543
O       3.88752     13.60186      6.93182         0.615282     -0.567462      0.318458
O      15.40552      1.93992      6.88028         0.308971     -0.376601      0.341090
O      15.36285     13.45128      7.07915         0.544220      0.160889      0.456227
O       3.99671      1.72983     11.17446        -0.583044      0.318463      0.408186
O       3.94665     13.48615     11.44855         0.282795     -0.101812     -0.692370
O      15.49993      1.95402     11.24020        -0.339399      0.618909      0.902666
O      15.46671     13.36945     11.35956         0.248251     -0.032794      0.001448
O       3.87862      5.76946      2.77754         0.092458     -0.336725      0.492818
O       4.12221      5.87351     16.05567        -0.570573     -0.344114     -1.046751
O       0.06091      5.78335      2.52871        -0.350895     -0.043347      0.737846
O       0.24910      5.73532     15.77815        -0.332295     -0.297471      0.080975
O       3.87677      5.63288      7.01171         0.645111      0.279141      0.347578
O      15.38044      5.76350      7.11116         0.685168     -0.122242      0.072895
O       3.97515      5.84333     11.36878         0.798662     -0.050760     -0.373406
O       0.16936      5.70164     11.46726        -0.055568     -1.010196     -0.129386
O       3.83698      9.73534      2.65300         0.551518     -0.339897      0.059968
O       4.05971      9.60775     15.65890        -0.225311     -0.031651      0.329980
O      15.25216      9.45076      2.47242         2.059832      0.276764      0.656520
O      15.53279      9.47923     15.81649         0.947312      0.043649      0.264074
O       3.88763      9.57017      6.97003         0.351294      0.497393      0.192326
O       0.09926      9.75972      7.11049         0.291861     -0.381543      0.092376
O       3.92814      9.53862     11.31973         0.063078     -0.309664      0.716895
O      15.49207      9.56750     11.34359         0.007529      0.356306      0.268255
O       7.72026      1.75516      2.76492        -0.757240      0.526316      0.012289
O       7.90307      1.85563     15.69403        -0.745512     -0.311185      0.703206
O       7.76700     13.39373      2.70865        -0.064907      0.362529      0.003127
O       7.89857     13.53033     15.76454        -0.894781     -0.593876     -0.123787
O       7.83181      1.85712      7.00918        -0.379800      0.524352      0.486225
O       7.78000     13.39440      7.12917        -0.075008      0.030291     -0.146705
O       7.79713      1.97534     11.35633         0.354041     -0.173665      0.354666
O       7.84090     13.37478     11.25921        -0.608538     -0.044801      0.409394
O       7.68149      5.71397      2.71675         0.192647      0.262557      0.600288
O       7.83958      5.79733     15.47178         0.700307      0.311223      0.782535
O       7.75596      5.79947      6.92378        -0.083244     -0.564182      0.718014
O       7.86708      5.73593     11.42869        -1.593575     -0.156792     -0.367383
O       7.64152      9.59157      2.78124         0.098195     -0.090715      0.247459
O       7.91092      9.49067     15.54572        -0.863126     -0.071291      0.682877
O       7.82327      9.68037      7.05596        -1.342181     -0.796178      0.053128
O       7.92710      9.57051     11.53212        -1.770540      0.687696     -0.056451
O      11.52602      1.97432      2.62762         0.689899     -0.259758      0.820830
O      11.78304      1.94880     15.87473        -1.057979     -0.296403     -0.518424
O      11.56580     13.31848      2.58137        -0.082610     -0.123003      0.275392
O      11.80263     13.37323     15.81804        -0.141602     -0.061704     -0.134241
O      11.59314      1.85117      6.89997         0.241546      0.710464      0.415138
O      11.55314     13.39785      7.15513         1.470064      0.284307      0.150834
O      11.68118      1.88042     11.52504        -1.050285     -0.453317     -0.273594
O      11.69102     13.47489     11.35267         0.015212     -0.159223      0.165371
O      11.47413      5.72420      2.68352         0.382190     -0.297902      0.115725
O      11.76430      5.68517     15.84728        -1.034384     -0.159224     -0.336530
O      11.64554      5.68329      6.95975        -0.666440      0.247199      1.147519
O      11.66613      5.71976     11.33113        -0.533030      0.920216      0.357338
O      11.50640      9.53915      2.67930        -0.003885      0.027046      0.416971
O      11.71120      9.75068     15.79379        -0.289616     -0.430190      0.225375
O      11.51724      9.46698      7.08663         1.403313      0.627276      0.419200
O      11.66828      9.52223     11.26694         0.120464     -0.122657      0.531566
O       1.96514      3.83902      2.73174        -0.076735     -0.045497     -0.179452
O       2.23362      3.86221     15.71389         0.237165     -0.543483      0.229865
O       1.99051     15.35868      2.54728        -0.183721     -0.183110      0.375805
O       2.27565     15.30952     15.80264        -0.158794      0.693800     -0.186298
O      13.48655      3.79397      2.66704         0.234055      0.244946      0.702483
O      13.65498      3.78893     15.73870         0.414695      0.040008      0.162384
O      13.44416     15.30347      2.59976        -0.196979      0.283773      0.573043
O      13.70617      0.05974     15.86268        -0.463574     -0.353755     -0.697062
O       1.92834      3.86607      7.00177         0.182198     -1.868553      0.353895
O       1.97708     15.35181      7.09347        -0.458602      1.374157     -0.540618
O      13.57349      3.83502      7.03040        -0.440299     -0.950679      0.268060
O      13.40171      0.04381      7.01197         0.363214     -0.400207      0.295285
O       2.22518      3.75491     11.40137        -0.176127      0.244688     -0.154126
O       1.94544      0.00250     11.21511         0.074939     -0.001139      0.871919
O      13.36427      3.86930     11.26026         1.155672     -0.931291      0.638374
O      13.66290     15.32319     11.13915        -0.205114     -0.207821      0.935905
O       2.04816      7.76113      2.85674        -0.276386     -0.578893     -0.598208
O       2.07000      7.57776     15.75146         0.567804      1.313684      0.160205
O      13.44294      7.61876      2.54008        -0.328027     -0.503428      0.611547
O      13.55918      7.66465     15.79360         0.050202     -0.563674     -0.147046
O       2.05412      7.66059      7.07208        -0.634639      0.468679     -0.023811
O      13.63419      7.72139      7.03809        -0.250588     -0.604461      0.595995
O       1.93432      7.53526     11.43286         0.547380      1.757812     -0.554254
O      13.68143      7.61811     11.56591        -0.406674      0.873928     -0.479349
O       1.92728     11.48920      2.59010        -0.630633     -0.510014      0.083452
O       2.04500     11.48917     15.71439         0.328077     -0.041688      0.116931
O      13.48824     11.41108      2.61686         0.104708      1.227576      0.239755
O      13.86517     11.50626     15.75033        -0.434798      1.230283      0.150110
O       2.01338     11.61378      7.10577         0.024633     -0.689670     -0.033551
O      13.47331     11.54241      7.03134        -0.237658     -0.229475      0.462637
O       2.07154     11.56454     11.15462        -0.053440     -0.848361      0.318963
O      13.51608     11.45526     11.51079         0.419750     -0.230038     -0.599069
O       5.83119      3.79364      2.64944        -0.026758     -0.364159      0.335932
O       5.99816      3.90121     15.67663        -0.108238     -1.602120      0.553535
O       5.84613     15.30135      2.64928        -0.599083      0.393672      0.539481
O       5.90326     15.27148     15.63622         0.097072      0.580543      0.199599
O       5.88661      3.77058      6.86458         0.089100      0.382255      0.747258
O       5.95951     15.32062      6.95520        -0.058785      0.157561      0.733174
O       5.79985      3.85032     11.33822         0.282886      0.096925      0.066287
O       5.96214     15.33525     11.37889         0.211326     -0.552479     -0.148647
O       5.73566      7.69453      2.79418         0.149646      0.152684      0.033750
O       5.96599      7.74836     15.76386         0.021046     -1.135450      0.263433
O       5.84773      7.70765      6.91203        -0.080286     -0.403121      0.428006
O       6.01856      7.66421     11.33729        -0.072255     -0.725913      0.021063
O       5.87482     11.64309      2.65108        -0.550587     -1.389405      0.155693
O       6.01202     11.42658     15.74339        -0.044984      0.393219     -0.225738
O       5.86519     11.47240      7.05322        -0.478911      0.336456      0.016533
O       5.82605     11.51791     11.35338         0.313582     -0.059129      0.550402
O       9.53208      3.85465      2.67461         0.050648     -0.828634      0.598885
O       9.68910      3.82973     15.72606         0.333420     -0.467908      0.164600
O       9.75884     15.31086      2.74199        -0.242993     -0.666416      0.018442
O       9.91352     15.22448     15.82141         0.004547      2.704778      0.443332
O       9.74341      3.81841      7.21633        -0.339500     -0.496000     -0.319765
O       9.68897     15.35750      7.01628         0.252566     -0.044858      0.094571
O       9.75383      3.82108     11.45969         0.027753     -0.191929     -0.360022
O       9.70346     15.32442     11.43629         0.170304      0.278739     -0.003213
O       9.54783      7.65738      2.78774         0.011841     -1.111305     -0.126589
O       9.86741      7.61387     15.83220        -0.293825      0.148996     -0.316008
O       9.69633      7.60368      7.00541        -0.324294     -0.138773      0.704659
O       9.63742      7.70253     11.32280         0.573795     -0.905173      0.261615
O       9.61935     11.39468      2.78933         0.090937      1.597458      0.053732
O       9.71618     11.47609     15.62121         0.042418      0.573499      1.128885
O       9.69322     11.47599      7.14213         0.342759     -0.138638      0.145812
O       9.79323     11.49898     11.44494         0.159573     -0.298918     -0.061577
