  # total energy = -7881.63331525 
CRSYTAL
PRIMVEC
    15.3600000000000000    0.0000000000000000    0.0000000000000000
     0.0000000000000000   15.3600000000000000    0.0000000000000000
     0.2400000000000000    0.0000000000000000    17.440000000000000
PRESSURE
0.943405 1.1559 -2.24488 -0.264666 -0.798119 -0.012307
PRIMCOORD
320 1
Pb       3.85024      3.82758      4.30527        -0.253737     -0.280387     -0.045057
Pb       3.98737      3.82172     17.38009         0.263246     -0.355397      0.304065
Pb       3.80911      0.01778      4.22416         0.002745     -0.371410      0.292475
Pb       4.23772     15.28714     17.37979        -0.803721      0.180789      0.414081
Pb      15.40849      3.90906      4.36283         0.315172     -0.163518     -0.347874
Pb      15.40760      3.82953     17.38340         0.789278     -0.319083      0.165832
Pb      15.40529     15.15683      4.27512        -0.276223      0.477018     -0.526903
Pb       0.38544      0.12107     17.32468        -0.530005     -0.616652      0.393731
Pb       3.80335      3.78817      8.72026         0.106647      0.632654      0.095714
Pb       3.95774      0.04261      8.64196        -0.010133     -0.168362      0.230266
Pb      15.38282      3.82108      8.75241        -0.033162      0.737289      0.330176
Pb       0.23002     15.34638      8.66273        -0.372100     -0.010291      0.617698
Pb       4.01527      3.69178     13.04191        -0.372991     -0.078249     -0.209113
Pb       3.95895     15.28453     12.89764        -0.244071      0.670452      0.074428
Pb      15.47070      3.65277     13.13484        -0.105674      0.564646     -0.105548
Pb      15.47880     15.18208     12.95770        -0.183988      0.563693      0.968052
Pb       3.92391      7.66463      4.29699        -0.474840     -0.129410     -0.199455
Pb       4.02139      7.78524      0.05563        -0.195595     -0.451056     -0.287348
Pb      15.37288      7.75053      4.31146         0.240897     -0.005944      0.066293
Pb       0.02161      7.58363      0.02117         0.265959     -0.244858     -0.505681
Pb       3.91211      7.78527      8.73901         0.393901     -0.505903     -0.544748
Pb       0.21367      7.69434      8.72936        -0.230990     -0.205461      0.242756
Pb       3.95517      7.66877     13.13716        -0.085241     -0.193063      0.319181
Pb       0.23549      7.73675     13.10518        -0.106480     -0.132086     -0.059325
Pb       3.86721     11.54282      4.29061        -0.535861     -0.204065     -0.100142
Pb       4.05512     11.44566     17.36057         0.274572      0.029744      0.687442
Pb      15.28924     11.38553      4.24205         0.218218      0.147285     -0.180623
Pb      15.56639     11.45295     17.40918         0.050269      0.328585      0.059860
Pb       3.87910     11.48656      8.60342         0.357933      0.566970      0.413669
Pb       0.21003     11.58028      8.67556        -0.373930     -0.203746      0.052641
Pb       3.98614     11.47249     13.16847        -0.516440      0.332981     -0.031929
Pb      15.41493     11.40877     13.04839         0.101761      0.854981      0.109324
Pb       7.70030      3.80292      4.43129         0.085883     -0.097731      0.131470
Pb       7.79249      3.81024     17.43266        -0.022404      0.144732     -0.579913
Pb       7.60337     15.27889      4.42599         0.462343     -0.015690     -0.230481
Pb       7.87624     15.34215     17.43817         0.508332     -0.011845      0.064625
Pb       7.81636      3.74793      8.71101        -0.072278      0.742520     -0.483571
Pb       7.76752     15.34075      8.61351         0.127246     -0.362915      0.367413
Pb       7.82674      3.96246     12.84926        -0.344138     -0.154910      0.643249
Pb       7.79314      0.04970     12.97832        -0.133323     -0.421790     -0.081756
Pb       7.77304      7.55074      4.28690        -0.000666      0.443523      0.461466
Pb       7.72944      7.73580      0.01189        -0.177918      0.038355     -0.696175
Pb       7.80313      7.69061      8.71676        -0.350013     -0.004242     -0.181661
Pb       7.84960      7.72760     13.09973         0.193189     -0.120526     -0.564380
Pb       7.89278     11.45457      4.36025         0.312973      0.044575      0.159692
Pb       7.58387     11.65126      0.03179         0.297508     -0.595629     -0.282450
Pb       7.71883     11.46041      8.60605        -0.038380     -0.150834      0.208978
Pb       7.79363     11.64030     13.03109         0.404592     -0.247662     -0.511040
Pb      11.60177      3.92421      4.43886        -0.173394     -0.488910     -0.138917
Pb      11.67720      3.94233     17.40836        -0.170436     -0.302696     -0.352931
Pb      11.55131      0.06787      4.46430         0.167561     -0.389948     -0.241191
Pb      11.55340      0.16405      0.01347        -0.143227     -0.344393     -0.584497
Pb      11.75130      3.84476      8.74300        -0.075297      0.120579     -0.486292
Pb      11.60987      0.02598      8.65141        -0.090865     -0.256375     -0.274445
Pb      11.60730      3.78922     12.98402         0.567440     -0.314302      0.118384
Pb      11.55527     15.19987     13.01676         1.156418      0.481745      0.638080
Pb      11.52987      7.57365      4.37054        -0.058571      0.234501     -0.349350
Pb      11.63388      7.60680     17.33281         0.002280      0.545476     -0.130402
Pb      11.61957      7.64440      8.68135        -0.154314      0.051088      0.446382
Pb      11.84579      7.57369     13.04250        -0.790263      0.579284      0.114142
Pb      11.67696     11.40652      4.21561        -0.241766      0.297443      0.284632
Pb      11.66388     11.62666     17.43117        -0.121046     -0.288911     -0.059616
Pb      11.56871     11.57403      8.73017         0.126896     -0.045236     -0.087692
Pb      11.59221     11.46177     13.05642         0.189397      0.155508     -0.616025
Ti       1.97141      1.78830      2.25061        -0.480602      1.205707     -0.896273
Ti       2.17331      1.88333     15.40083         0.148671     -0.705808     -0.005652
Ti       1.93743     13.37594      2.14005        -0.117617     -0.052571     -0.220372
Ti       2.11846     13.40161     15.45868        -0.104264     -0.034604     -1.397305
Ti      13.48997      1.88223      2.34523         0.369391     -0.249212     -0.094999
Ti      13.62578      1.88941     15.29100         0.297579     -0.656727     -0.431982
Ti      13.40664     13.45897      2.16335         0.808472     -0.488504      0.126801
Ti      13.63767     13.42168     15.52540         0.093457      0.673810     -1.737495
Ti       1.92201      1.98094      6.64703         0.353929     -0.186585     -1.532287
Ti       2.01733     13.54117      6.66923         0.195404     -1.222180      0.297108
Ti      13.50370      1.92371      6.63955        -0.611706      0.306954     -0.430591
Ti      13.56845     13.47678      6.67405        -1.448503     -0.596005      0.350850
Ti       1.99638      1.99456     11.00943         0.723872     -0.711957      0.746774
Ti       2.10452     13.41915     11.07405        -1.651381      0.733237     -2.052308
Ti      13.51477      1.87206     10.98695         0.560552      0.356186      0.758133
Ti      13.61381     13.42098     10.98142        -0.008322     -0.239146      0.901525
Ti       1.93953      5.72458      2.32968        -0.257173      0.031191     -0.261460
Ti       2.18058      5.69711     15.42305        -0.706120      0.464115     -1.460047
Ti      13.49622      5.74664      2.28900         0.009573     -0.124752     -0.382982
Ti      13.65129      5.74220     15.41809         0.015779      0.236838     -1.205824
Ti       1.96366      5.74827      6.69782         0.575763      0.299812     -0.615036
Ti      13.58880      5.88596      6.68598        -0.591533     -1.817326     -0.453997
Ti       2.01101      5.76772     11.21559        -1.115751     -0.948748     -1.965398
Ti      13.57836      5.72257     11.22456         1.610994     -0.973653     -1.301446
Ti       1.98557      9.58556      2.27764        -0.446303     -0.491450     -0.408812
Ti       2.13109      9.56207     15.55338        -0.587557     -0.493027     -1.586599
Ti      13.42560      9.46175      2.14607         0.107581      1.463032      2.204408
Ti      13.62640      9.61800     15.47011        -0.624917     -0.967806      2.416357
Ti       1.99452      9.61584      6.64497        -0.650535      0.066897     -0.972939
Ti      13.44342      9.60369      6.78314         0.824566      0.544973     -0.331417
Ti       2.05805      9.63085     11.00274        -0.527178     -0.040162      0.196493
Ti      13.58076      9.56249     10.96739        -0.590832      0.559634     -1.062105
Ti       5.86248      1.84506      2.39448        -0.780579      0.386093     -0.819711
Ti       5.96278      1.78734     15.30573        -0.073014      0.955239      0.331341
Ti       5.78589     13.36381      2.37488        -0.194632      0.756151     -1.422554
Ti       5.95888     13.36279     15.28843        -0.077972     -0.686489     -0.167898
Ti       5.83176      1.89862      6.63704         0.295016      0.482333      0.908736
Ti       5.77211     13.39698      6.63752         0.739976      0.301651      0.816322
Ti       5.93778      1.97611     10.86820        -1.199362     -1.874415      1.452997
Ti       5.86967     13.37978     10.99109         0.522215      0.861731     -1.028431
Ti       5.80026      5.74633      2.41546        -0.721683     -0.522560     -0.375390
Ti       5.86747      5.66912     15.35662         1.215063      0.640522      0.488496
Ti       5.77540      5.71975      6.60815         0.241415      0.194564     -0.115914
Ti       5.75316      5.83610     10.96189         1.127871     -0.125434      0.673704
Ti       5.86372      9.68628      2.37247        -0.429788     -1.442095     -1.246100
Ti       5.96509      9.60126     15.29323         0.927443     -0.968069      0.951042
Ti       5.74750      9.58814      6.52942         1.447907     -0.303573      0.690408
Ti       5.78161      9.62140     11.11087         1.186712      0.242156     -2.058126
Ti       9.64240      1.84955      2.44581         0.400206     -0.081823      0.116741
Ti       9.76255      1.87728     15.38886         0.532712      0.190577     -1.339917
Ti       9.57746     13.43807      2.33626         1.127586     -0.446191     -1.445920
Ti       9.75422     13.40977     15.39338         1.440267      0.298307      0.322095
Ti       9.61469      1.86708      6.67896         1.335311      0.225940     -0.647668
Ti       9.66220     13.38556      6.66087         1.328926     -0.442043     -0.836889
Ti       9.69175      1.90131     11.03857         1.449497     -0.009695     -0.681214
Ti       9.80860     13.52444     10.98748        -0.705675     -2.406933      0.113243
Ti       9.57980      5.61993      2.39852         1.083697      0.291314     -0.265233
Ti       9.73740      5.72720     15.29135        -0.287423      0.336923     -0.092244
Ti       9.62015      5.71891      6.77411         0.476210     -0.085609     -1.350526
Ti       9.74400      5.78345     11.03021        -0.352931      0.694038     -0.725237
Ti       9.64365      9.53041      2.38167         0.760425      0.065032     -2.055467
Ti       9.78972      9.63891     15.34516         0.234362     -0.962847      1.065192
Ti       9.61169      9.54823      6.71655         0.785205      0.650850     -0.640354
Ti       9.66510      9.61904     11.06145         0.493900     -0.311203     -0.247809
O       1.95691      1.85580      0.43094         0.150640     -0.121900      0.920141
O       2.29123      1.82061     13.63412        -0.008851      0.293646      0.286616
O       1.86471     13.32673      0.36423         0.510101      0.053037      0.059147
O       2.16533     13.33927     13.61577         0.253700      0.064066      0.313848
O      13.43735      1.89744      0.53534        -0.128894      0.097242      0.910745
O      13.59245      1.85472     13.52303         0.057143      0.277646      0.477436
O      13.50301     13.34027      0.38174        -0.326420      0.454973      0.036009
O      13.70631     13.48055     13.71515        -0.408562     -0.626192      0.277223
O       1.89700      1.97496      4.80953         0.287704     -0.253149      1.803730
O       1.92743     13.52905      4.93526         0.179770      0.032679     -0.654273
O      13.38687      1.81530      4.84856         0.626196      0.193678      1.105093
O      13.46903     13.49732      4.89409         0.681923     -0.331426      0.830779
O       2.05161      1.98555      9.22597        -0.223224     -0.216852     -0.253005
O       1.99444     13.47402      9.20611         0.120796      0.383004      0.788315
O      13.53987      2.02626      9.19098        -0.169308     -0.351294      0.253057
O      13.52073     13.41540      9.26250         0.175939      0.289314     -1.100266
O       1.84109      5.87015      0.56251         0.322007     -0.661004     -0.090397
O       2.20709      5.64872     13.56071        -0.090399      0.670351      1.382846
O      13.50175      5.70626      0.43994        -0.125531     -0.240746      1.366642
O      13.54208      5.75714     13.58662         0.089915     -0.140050      0.664672
O       1.90465      5.70001      4.89658         0.197306     -0.034220      1.048386
O      13.58865      5.89160      4.87716        -0.373689     -0.019542      0.875724
O       1.95559      5.61537      9.36537         0.085956      0.374114      0.654658
O      13.70731      5.68596      9.43875        -0.271061     -0.237656     -0.251396
O       1.97395      9.58973      0.47512        -0.009157     -0.155685      0.156676
O       2.15086      9.50751     13.68861        -0.235798      0.227980      1.020903
O      13.29877      9.54690      0.45876         0.246254     -0.177717     -1.296574
O      13.73265      9.63024     13.78968        -0.057433     -0.034629     -3.161966
O       1.97150      9.48841      4.85579         0.072424      0.488945      0.302249
O      13.62441      9.68489      4.95270        -0.465250     -0.485535      1.212895
O       2.04989      9.51596      9.22658         0.323049      0.308337      0.025954
O      13.60758      9.56607      9.17124        -0.078074     -0.201467      1.122810
O       5.90089      1.75997      0.57881        -0.231614      0.146710      1.242056
O       5.96156      1.82839     13.51654        -0.091481      0.001215      1.197282
O       5.84402     13.39002      0.55557         0.044823     -0.026534      0.230706
O       5.94870     13.29873     13.50572        -0.219992      0.404427      0.394601
O       5.90092      1.76815      4.89112        -0.071841     -0.181162     -0.789199
O       5.79777     13.51484      4.88310        -0.039282     -0.433076     -0.406586
O       5.90856      1.94759      9.13743         0.123929      0.076666     -0.695279
O       5.79037     13.27005      9.19686         0.401109      0.253257      0.771319
O       5.81527      5.76511      0.63440        -0.121708     -0.292265      0.691341
O       5.80820      5.72436     13.61195         0.255177     -0.043204     -0.929340
O       5.73294      5.82356      4.79043         0.399899     -0.292302      0.883580
O       5.86401      5.76236      9.25228        -0.176899      0.025183     -0.684326
O       5.80062      9.62475      0.50753         0.255703     -0.257245      1.599980
O       5.81888      9.56674     13.51688         0.284731      0.012891      0.320040
O       5.76013      9.67036      4.74981         0.099334     -0.158234      0.004828
O       5.75232      9.68722      9.19769        -0.020912     -0.079978      2.123994
O       9.56558      1.87495      0.68098         0.360719      0.116255     -0.385307
O       9.76266      1.78489     13.57408        -0.295798      0.350660      0.937029
O       9.58838     13.46973      0.45125        -0.275040     -0.166113      1.762780
O       9.88374     13.41694     13.60604        -0.403668     -0.225084      0.397313
O       9.75192      1.72832      4.90162        -0.691290      0.572933      0.271040
O       9.71294     13.26416      4.85753        -0.305400      0.180941      0.350246
O       9.79977      1.89525      9.25569        -0.676100      0.021315      0.341174
O       9.80752     13.52149      9.23751        -0.049596     -0.047993     -0.513052
O       9.61443      5.56823      0.60949        -0.175009     -0.034552      0.652481
O       9.75207      5.79564     13.48599        -0.068858     -0.262452      0.700316
O       9.70099      5.64238      4.88682        -0.022210      0.825054      0.977118
O       9.67263      5.77277      9.21609         0.126154      0.036953      0.255377
O       9.53916      9.36894      0.55309         0.290122      0.591074      1.121451
O       9.82844      9.52805     13.59479        -0.244643      0.397789     -0.410178
O       9.63177      9.60156      4.93546         0.014815     -0.111596     -0.615362
O       9.62747      9.47093      9.28991        -0.009316      0.261278      0.010067
O       3.86627      1.83052      2.72633         0.705166      0.442167     -0.041660
O       4.16224      1.85310     15.96164        -0.040329     -0.087716     -0.643580
O       3.90726     13.29829      2.67216        -0.451614      0.081019      0.148751
O       4.14222     13.02624     15.74869         0.063128      1.440050     -0.498343
O       0.10429      1.73586      2.61710        -0.821009     -0.033549      0.187757
O       0.27633      1.79133     15.77855         0.422058      0.412195     -0.475644
O       0.10469     13.47873      2.53075        -0.996194      0.210142      0.594423
O       0.25189     13.47571     15.64993         0.165584     -0.294768      0.728178
O       4.01781      1.97043      7.01823        -1.599047     -0.375505      0.075010
O       3.93249     13.48193      7.06720        -0.251234      0.441853     -0.171932
O      15.40082      1.80960      6.99631         0.279232      0.525247     -0.086407
O       0.14524     13.49250      7.19341        -1.211102     -0.140430     -0.721248
O       3.95669      1.88908     11.33599         0.965754     -0.309631     -0.099512
O       3.90426     13.38229     11.28988         2.118150      0.402394      0.631858
O      15.50446      2.03301     11.48144         0.052365     -0.886669     -0.790094
O       0.16991     13.46175     11.45269        -0.476032     -0.320705     -0.205523
O       3.84481      5.60399      2.84532         0.675779      0.807755     -0.753612
O       4.02379      5.71863     15.78950        -0.081020     -0.154905      0.546157
O      15.39265      5.88622      2.84345        -0.396915     -0.482798     -0.795998
O       0.26116      5.71451     15.87598         0.277739      0.299158     -0.393739
O       3.94164      5.65394      7.07864        -0.558740      0.127697     -0.052569
O       0.12993      5.76036      7.15996        -0.250268      0.081970     -0.310090
O       3.90871      5.86255     11.29330         1.280739     -0.016487      0.521141
O      15.48929      5.49735     11.61697         0.308765      1.121192      0.158775
O       3.85311      9.56691      2.65613         0.895707      0.402851      0.195552
O       4.12212      9.58755     15.80192        -0.359950      0.220104      0.034881
O       0.04759      9.49099      2.64711        -0.183737      0.034297     -0.231053
O      15.53870      9.50877     15.91063         0.933428      0.045812     -0.077722
O       3.98497      9.73078      6.98836        -1.502383     -0.713400      0.076597
O       0.14566      9.58547      7.11385        -0.182588      0.188148     -0.127424
O       3.93720      9.45076     11.56639        -0.607887      0.788783     -0.733397
O       0.17768      9.64609     11.51907        -0.331711     -0.569698     -0.271245
O       7.72411      1.85906      2.79206        -0.136562     -0.250353      0.145291
O       7.87113      1.79267     15.89994        -0.491070      0.537031     -0.746826
O       7.72899     13.34692      2.68552         0.071717     -0.198061      0.305835
O       7.92369     13.39699     15.62861        -1.109589      0.209264      0.523219
O       7.76989      1.89085      7.15232         0.091348     -0.062858     -0.179685
O       7.83734     13.29172      7.00094        -1.287869      0.432767      0.255851
O       7.87006      1.82367     11.42971        -0.876463      0.458678     -0.403819
O       7.92278     13.33512     11.38195        -1.102202      0.168245      0.039548
O       7.74774      5.60943      2.84898        -0.470634      0.215072     -0.344840
O       7.85605      5.75144     15.71535         0.395585     -0.438020     -0.025671
O       7.74255      5.69620      7.03787        -0.228293      0.974700      0.172840
O       7.81008      5.74508     11.31864        -0.585709      0.186210      0.531834
O       7.81133      9.62555      2.75516        -1.693020      0.032122      0.131090
O       7.90878      9.44552     15.73843        -0.343048     -0.009781     -0.291272
O       7.74956      9.59142      7.03190        -1.239085      0.374565      0.049555
O       7.76865      9.65638     11.43822        -0.013879     -0.250252      0.249287
O      11.62747      1.88455      2.87444        -0.531132      0.141860     -0.835158
O      11.79768      1.95521     15.65107        -1.364424      0.089211      0.837972
O      11.62279     13.36497      2.51015        -1.095915     -0.024245      0.183939
O      11.67639     13.36766     15.75524         0.486290      0.205004      0.397985
O      11.50461      2.04701      7.05917         1.289925     -0.508562      0.178283
O      11.55452     13.48038      7.07995         1.148488     -0.327334      0.174436
O      11.65834      1.85844     11.37360        -0.656795      0.364377      0.048588
O      11.71707     13.35958     11.46224        -0.287420      0.145548     -0.074990
O      11.60273      5.64086      2.71565        -0.248943      0.277005      0.010999
O      11.73137      5.62729     15.78058        -0.166833      0.023861      0.004781
O      11.63604      5.79943      7.15325        -0.010427     -0.094759     -0.346007
O      11.70113      5.68825     11.40448        -1.257818     -0.091184      0.307972
O      11.54599      9.45789      2.80197         0.461407      0.364404     -0.222843
O      11.71672      9.51232     15.84351        -0.447837      0.397114     -0.300092
O      11.59064      9.48327      7.08963         0.726687     -0.268533     -0.053343
O      11.68464      9.62865     11.44960         0.800288     -0.303331     -0.098336
O       1.87614      3.79185      2.64665         0.107076     -0.106210      0.174508
O       2.26128      3.73062     15.73583        -0.276119      1.043190      0.199650
O       2.12883     15.24583      2.47422        -0.197181      0.435049      0.665083
O       2.37177     15.26917     15.77394        -0.140085      0.118889      0.189386
O      13.61678      3.86363      2.79838        -0.203149     -0.381463     -0.614469
O      13.87739      3.78851     15.68695        -0.810843      0.029405      0.129380
O      13.40454     15.29909      2.71708         0.443529      0.371391     -0.347236
O      13.67716      0.00824     15.70284        -0.383190     -0.288515      0.898868
O       1.98084      3.84741      7.19932        -0.097111     -0.723349     -0.819087
O       1.97367      0.06673      7.04225         0.630628      0.431739      0.203698
O      13.56637      3.88365      7.02735        -0.038951     -0.573239     -0.060242
O      13.44055     15.32609      7.08076         0.333576      0.634351     -0.160941
O       2.14978      3.83360     11.52132         0.214862     -0.742250     -0.019905
O       2.03869      0.01526     11.48581         0.186489      0.082396     -0.459346
O      13.60985      3.76523     11.52024        -0.906862     -0.500393      0.044060
O      13.55218     15.34094     11.44056         0.386241      0.085444     -0.537211
O       2.06905      7.61079      2.64044        -0.116151      0.943266      0.375569
O       2.21263      7.63683     15.79024        -0.222159      0.086421      0.109378
O      13.38604      7.69371      2.68297         0.407668     -1.537132     -0.050589
O      13.60712      7.58756     15.69349         0.232672      0.196539      0.482030
O       2.05501      7.70737      7.07008         0.419342     -0.586103      0.112548
O      13.60031      7.61794      7.22461        -0.031098      1.410043     -0.306256
O       1.86072      7.67223     11.34874         0.461480      0.281339      0.485106
O      13.59904      7.62888     11.36433         0.424255      1.075772      0.704247
O       1.84319     11.53288      2.61943         0.676341     -1.195370      0.358269
O       2.12249     11.48877     15.84061        -0.286229     -1.129067     -0.003980
O      13.54215     11.45537      2.67223        -0.131801      0.097220     -0.330539
O      13.65025     11.46467     15.82887         0.168032      0.743814      0.180420
O       2.05015     11.57059      6.93840        -0.211042     -0.300266      0.340244
O      13.42706     11.47676      7.21308         0.715691      0.735282     -0.706543
O       2.03650     11.55395     11.16725         0.189780     -1.610749      0.813672
O      13.68823     11.49894     11.27451        -0.149106     -0.364621      0.709009
O       5.79072      3.76985      2.80040         0.293991     -0.302821     -0.244403
O       5.85992      3.77393     15.83332         0.853597     -0.337604     -0.222612
O       5.76852     15.21468      2.79063         0.360652      1.424138     -0.103914
O       5.86909     15.21129     15.69320         0.512925      0.558734     -0.137456
O       5.95964      3.83312      6.87436        -0.108269     -0.325710      0.229380
O       5.93221     15.34587      7.20689        -0.248568     -0.511757     -0.754634
O       5.87520      3.72636     11.33758         0.270403      2.146645      0.118213
O       6.01403     15.31634     11.26171        -0.450260     -0.230186      0.154572
O       5.87751      7.66414      2.73859        -0.173158      0.015212     -0.186755
O       5.92410      7.56454     15.79032        -0.057519      1.072052     -0.130073
O       5.71869      7.68960      7.03583         0.361830      0.132673     -0.338257
O       5.93529      7.76722     11.36384        -0.146604     -1.296872      0.094466
O       5.79767     11.49460      2.63009         0.258980     -0.352656      0.648605
O       6.15998     11.42923     15.71396        -0.099483      0.146848     -0.056676
O       5.75565     11.55940      6.99317         0.608819     -0.582283     -0.186110
O       5.85611     11.56676     11.54831        -0.195266     -1.060883     -0.312782
O       9.66874      3.70536      2.92690        -0.092880      0.881780     -0.471600
O       9.79578      3.84812     15.71250        -0.233605     -0.809425      0.345696
O       9.61646     15.26756      2.77126         0.267425      0.227791     -0.036963
O       9.81886      0.05803     15.86969         0.267775     -0.791687     -0.200485
O       9.58879      3.87442      6.94011         0.187324     -0.835466      0.654232
O       9.70904     15.32360      6.95623        -0.413052      0.079921      0.543150
O       9.64184      3.83826     11.35316         0.642754     -0.590154      0.181027
O       9.74016     15.29047     11.47307         0.073881      1.333742     -0.207156
O       9.59235      7.62215      2.67004         0.094444     -1.307507      0.662033
O       9.84402      7.64381     15.78789        -0.035235     -0.766664     -0.144863
O       9.63351      7.72972      7.10868         0.068507     -1.768370      0.142505
O       9.80890      7.64354     11.44400        -0.387019      0.175477      0.101277
O       9.79544     11.44917      2.68437        -0.718872      0.586867      0.013407
O       9.78930     11.47709     15.92447        -0.146235      0.248059     -0.773935
O       9.83754     11.40414      7.12880        -0.720324      1.096495      0.132221
O       9.78104     11.47929     11.37705         0.207586      0.353381      0.345694
