  # total energy = -7879.24247633 
CRSYTAL
PRIMVEC
    15.3600000000000000    0.0000000000000000    0.0000000000000000
     0.0000000000000000   15.3600000000000000    0.0000000000000000
     0.2400000000000000    0.0000000000000000    17.440000000000000
PRESSURE
1.63979 1.52191 -2.46475 -0.242624 -0.924413 -0.044283
PRIMCOORD
320 1
Pb       3.94094      3.87677      4.27323        -0.145088     -0.469187      0.937028
Pb       4.09831      3.81207     17.36329        -0.210872     -0.340112      0.507989
Pb       3.99345     15.25880      4.34282        -0.733805      0.820815      0.689002
Pb       4.01057     15.35637     17.42438         0.180581     -0.199191      0.984140
Pb      15.35560      3.81687      4.22934        -0.160234     -0.273276      1.161474
Pb       0.29209      3.82709     17.43206        -0.210640      0.122303      0.614373
Pb      15.37258      0.05822      4.35911         0.230699      0.249314      0.345745
Pb      15.22049     15.30627      0.02117         0.148338     -0.123194      0.426065
Pb       4.05841      3.68914      8.59441        -0.540870      0.390038      0.563822
Pb       3.88501      0.00296      8.85542         0.016314     -0.280801     -0.830931
Pb      15.39558      3.83604      8.56514         0.441960     -0.469767      1.162754
Pb      15.46828     15.35273      8.67388        -0.336139     -0.072520     -0.101806
Pb       3.91401      3.78787     13.01299         1.048839      0.689914      1.111400
Pb       4.05988     15.35658     13.07764         0.142932     -0.265938      0.285532
Pb       0.19146      3.83113     13.03924        -0.146083      0.018777      0.270547
Pb       0.21469      0.13310     12.98484         0.277880     -0.547786      0.801140
Pb       3.80635      7.67464      4.28400         0.640209      0.219594      0.260317
Pb       3.99359      7.64521     17.31405        -0.543734      0.455083      1.595400
Pb      15.36391      7.66703      4.27967         0.313890     -0.460042      1.114634
Pb      15.56059      7.75515     17.34350         0.296519     -0.287642      0.498474
Pb       3.88226      7.68213      8.69256         0.150996     -0.275651      0.542386
Pb      15.43269      7.69646      8.70366        -0.502452     -0.634854      0.305208
Pb       4.02396      7.76512     12.83527         0.364477     -0.397222      1.257988
Pb      15.35937      7.66627     13.08322         1.280339      0.032124      1.023227
Pb       3.80059     11.50213      4.32260         0.809523     -0.507428      0.717832
Pb       3.88079     11.54745      0.10590        -0.190052      0.207046      0.214426
Pb       0.17604     11.55155      4.26603        -0.711405     -0.177868      1.633053
Pb       0.27601     11.44453     17.37337        -0.356151      0.368966      1.121949
Pb       3.85702     11.52677      8.74044         0.587828     -0.200167     -0.112045
Pb      15.45629     11.41991      8.63251        -0.026554      0.493652      0.891993
Pb       3.97848     11.48220     13.06487         0.307800      0.202487      0.006591
Pb       0.26004     11.52993     12.97195        -0.026501     -0.266445      0.639073
Pb       7.67967      3.80967      4.21697         0.062352      0.012347      0.840569
Pb       7.99834      3.94894     17.42464        -0.652277     -0.649984     -0.087562
Pb       7.71138      0.08011      4.28701        -0.007602     -0.088133      0.461630
Pb       7.84343     15.26169     17.26288        -0.137151      0.529654      1.859252
Pb       7.75547      3.82302      8.63845        -0.148460      0.260448      0.653277
Pb       7.85879      0.02965      8.68349        -0.375738     -0.853854      0.371040
Pb       7.85003      3.65802     13.08707        -0.140166      0.479718      0.158741
Pb       7.79912     15.32286     13.05444         0.394147      0.027720      0.104428
Pb       7.71729      7.76006      4.21421         0.139698     -0.193615      0.279781
Pb       7.85137      7.62761     17.43892         0.169222      0.066295     -0.011460
Pb       7.85584      7.65677      8.74595        -0.136466     -0.184103      0.165010
Pb       7.84877      7.61778     13.05923        -0.194671      0.185610      0.546235
Pb       7.61467     11.50346      4.26192         0.456564     -0.058229      0.041607
Pb       7.84183     11.44139     17.39913         0.087418      0.467285      0.588130
Pb       7.81696     11.56189      8.75300        -0.217308     -0.080421     -0.380097
Pb       7.85296     11.47052     13.02338        -0.297518      0.078388      0.110158
Pb      11.55577      3.82347      4.20767        -0.023762      0.154423      1.440404
Pb      11.74869      3.85054     17.37246        -0.092368     -0.238661      0.930461
Pb      11.55408     15.33991      4.34829        -0.260995     -0.096574      0.473413
Pb      11.81449     15.20779     17.24967        -1.048648      0.748086      1.579402
Pb      11.56881      3.80361      8.63308         0.462661      0.196481      0.524941
Pb      11.52714     15.30664      8.73953         0.631671     -0.339651     -0.610622
Pb      11.72311      3.91062     13.10728        -0.219324     -0.268505     -0.337751
Pb      11.71483     15.35228     13.03116        -0.467755     -0.371561      0.684529
Pb      11.56303      7.67635      4.43208        -0.521736      0.053257     -0.307639
Pb      11.80939      7.67028     17.38072        -0.316838     -0.048935      0.407128
Pb      11.56830      7.60755      8.56426         0.628441      0.262461      0.841340
Pb      11.66319      7.57320     13.11320        -0.313010      0.478075      0.151095
Pb      11.50456     11.51687      4.24590        -0.400970     -0.020725      0.830257
Pb      11.72454     11.42072     17.40389        -0.144980      0.233406      1.080796
Pb      11.64611     11.52094      8.60584        -0.193100     -0.191485      0.306304
Pb      11.70405     11.60152     12.98430        -0.067203     -0.249216      0.415803
Ti       1.94585      1.90697      2.39328         0.307605     -0.630111     -0.757710
Ti       2.03955      1.83950     15.53024         0.612226      0.138884     -0.524508
Ti       1.87646     13.42047      2.44062         1.039077      0.915925     -1.556936
Ti       2.02772     13.42723     15.45038         0.357353      0.112428     -1.337448
Ti      13.39386      1.88266      2.33100         0.704766      0.574540      0.065153
Ti      13.58275      1.94859     15.44010         0.478143     -0.444445     -1.223831
Ti      13.45066     13.44212      2.44171         0.107451     -0.618026     -0.769011
Ti      13.57441     13.37037     15.35515         0.521428      0.304736     -0.593903
Ti       2.01588      1.85318      6.64305         0.345575      0.299684     -0.604802
Ti       1.97014     13.40380      6.74374         0.458204     -0.097727     -0.483153
Ti      13.52504      1.88746      6.70628        -0.040942     -0.719753     -0.539004
Ti      13.47875     13.40590      6.69011        -0.455741      1.014935     -0.733355
Ti       2.15421      1.96439     11.09724        -0.793617     -0.507977     -1.140930
Ti       2.21291     13.42448     11.08911        -0.436498     -0.298051      0.116571
Ti      13.56763      1.82256     10.95784         0.396524      0.578941     -0.734985
Ti      13.71081     13.40082     11.08642        -0.396327     -0.351047     -1.319454
Ti       1.92237      5.72003      2.35634        -0.127646      0.309290     -1.818864
Ti       2.09163      5.73893     15.44719        -0.691051      0.059259     -0.475781
Ti      13.45439      5.84461      2.36262        -0.275699     -1.664374     -0.878845
Ti      13.62377      5.71533     15.43116         0.756752      0.663426     -0.775589
Ti       2.06110      5.71329      6.74608        -0.568797     -0.942026     -0.309332
Ti      13.54405      5.74737      6.67750        -0.317290     -0.199245     -0.982896
Ti       2.01288      5.84616     11.09902         0.659733     -1.172168     -0.527143
Ti      13.53896      5.70145     11.06532        -0.089165     -0.163539     -1.022946
Ti       1.94502      9.57751      2.38312         0.910338     -0.572918     -1.698976
Ti       2.17694      9.66414     15.34481         0.092945     -0.409428      0.289833
Ti      13.53472      9.62490      2.51998        -1.278420      0.456959     -1.253181
Ti      13.65655      9.66417     15.34764         0.177275     -1.213500     -1.491585
Ti       1.99409      9.49912      6.70956         0.255753      0.743541     -0.788518
Ti      13.60717      9.64025      6.59013        -1.472215     -1.172888      0.057237
Ti       1.99358      9.56952     10.97631         0.954524      0.711595     -0.085604
Ti      13.50107      9.50880     11.06823         0.279087      0.528062     -0.091724
Ti       5.76020      1.95100      2.30900        -0.309262     -1.611566     -0.078988
Ti       5.95365      1.86616     15.47180        -0.277158      0.228239      0.514699
Ti       5.71489     13.43581      2.48241         0.574219      0.096143     -2.424530
Ti       5.78194     13.44415     15.37271         1.379145     -0.238537     -0.035970
Ti       5.89445      1.78495      6.74783        -0.773934      0.897807     -2.211016
Ti       5.77961     13.36474      6.65795         0.229634     -0.788579     -0.807243
Ti       5.89527      1.93824     10.95570         1.231004     -0.276426      0.274323
Ti       5.94084     13.39813     10.96982         0.087256      0.409744      0.466874
Ti       5.76044      5.81605      2.24017         0.069320     -0.699370     -1.176795
Ti       5.87708      5.75079     15.43477         0.372735     -0.155815     -0.659932
Ti       5.80920      5.83065      6.69803         0.482969     -1.632592     -1.167232
Ti       5.90196      5.76734     11.07009         0.255489     -0.537162      1.157587
Ti       5.83859      9.56438      2.19399        -1.175063      0.473827     -0.122774
Ti       5.95750      9.57641     15.53534         0.095671      0.518360     -0.163443
Ti       5.83034      9.50060      6.68016         0.080627      1.086816     -1.172302
Ti       5.91350      9.64459     10.92496        -0.007030     -0.126365      0.502422
Ti       9.64165      1.90352      2.33329        -0.645329      0.406580     -1.002391
Ti       9.77149      1.89802     15.43322        -0.535956     -0.798089     -0.416480
Ti       9.54267     13.47405      2.25641         0.012450     -0.644770     -0.553087
Ti       9.70323     13.38163     15.45428        -0.201366      0.983043     -1.206633
Ti       9.65448      1.83012      6.75585         0.689012      0.489002     -2.310200
Ti       9.58299     13.35629      6.57987         0.566382     -0.033480     -0.236209
Ti       9.85829      1.82775     11.00979        -1.548039      0.051406      0.214787
Ti       9.78648     13.41145     11.02585        -0.043558      0.310589      0.205954
Ti       9.63312      5.74203      2.24578         0.667513      0.391060     -0.298901
Ti       9.81153      5.72349     15.43372        -0.378871      0.828871     -0.845502
Ti       9.64844      5.72485      6.74665        -0.244989     -0.061741     -1.040833
Ti       9.69843      5.74570     11.07681        -0.018695     -0.428696     -0.925381
Ti       9.65217      9.57555      2.19756         0.046630      0.301343     -0.416802
Ti       9.83816      9.56972     15.40941        -1.066866     -0.798374      0.002114
Ti       9.59872      9.63400      6.72894         0.972656     -0.055887     -1.497506
Ti       9.71714      9.61209     10.99081        -0.359663     -0.493451     -0.135147
O       1.90688      1.94126      0.57123        -0.099448     -0.017605      1.419974
O       2.02652      1.83417     13.71760         0.029037      0.113937      0.594694
O       1.86203     13.35381      0.63891        -0.106626      0.163519      1.105579
O       2.08020     13.39148     13.60022         0.204725      0.109500      1.816556
O      13.35352      1.85906      0.56819        -0.036065      0.006992      0.203762
O      13.58590      1.92281     13.58527         0.183721      0.286224      2.164476
O      13.56455     13.27067      0.66158        -0.384994      0.590478      0.916851
O      13.51663     13.35695     13.56621         0.120348     -0.005414      1.100118
O       1.88975      1.95977      4.86891         0.290169     -0.402686      1.066009
O       2.00491     13.37648      4.96661        -0.119927     -0.187634      0.631038
O      13.63653      1.84487      4.91705        -0.485632      0.069748      0.930581
O      13.30937     13.50846      4.88513         0.790762     -0.283402      1.720388
O       2.21588      1.87580      9.31436        -0.201212     -0.156007      1.140945
O       2.38660     13.34802      9.31783        -1.026878      0.561226      0.405109
O      13.53293      1.74162      9.10966         0.208072      0.217924      2.682733
O      13.68947     13.37254      9.25952        -0.339038      0.102299      1.769319
O       1.86484      5.75924      0.51443        -0.127701     -0.295760      2.284108
O       2.14386      5.66522     13.67619        -0.093189      0.098480      0.216859
O      13.39127      5.81799      0.56736         0.113204      0.112300      0.629410
O      13.52823      5.65808     13.59510         0.209352      0.043321      1.296931
O       2.09672      5.67901      4.97694        -0.106284      0.424337      0.801904
O      13.66674      5.78511      4.87195        -0.739268     -0.258753      1.522448
O       2.12680      5.77508      9.33838        -0.543482      0.159203      0.670766
O      13.43243      5.73738      9.27591         0.397750      0.067093      0.932388
O       1.83992      9.51356      0.58193        -0.125944      0.423209      1.541371
O       2.11310      9.77784     13.54871         0.314611     -0.603424      1.670925
O      13.50610      9.65705      0.70325        -0.075111     -0.216300      1.051708
O      13.67459      9.54773     13.48647        -0.318055      0.285851      2.645561
O       1.89069      9.56432      4.89875         0.433732     -0.173613      1.439320
O      13.60241      9.51764      4.80224        -0.092810      0.120679      1.187247
O       2.08329      9.51135      9.16396        -0.377736     -0.156134      1.038055
O      13.56695      9.52749      9.27011         0.085198     -0.102364      1.598214
O       5.78443      1.87602      0.55136        -0.442914      0.291074      0.168932
O       6.01038      1.76978     13.72333        -0.374008      0.227850     -0.077042
O       5.41120     13.51795      0.65230         1.052039     -0.368414      1.841263
O       5.82747     13.48706     13.57629         0.174516     -0.277584      1.092067
O       5.93581      1.96297      4.88332        -0.023382     -0.497643      2.368431
O       5.80439     13.22825      4.78153         0.029255      0.386007      1.845441
O       5.94490      1.83325      9.10671        -0.320517      0.000240      2.032116
O       5.81190     13.30369      9.20616         0.284486      0.301458      0.302885
O       5.77948      5.76653      0.38787        -0.239018     -0.383272      2.168278
O       5.81009      5.79100     13.64856         0.068952      0.102004      1.251256
O       5.77870      5.84515      4.86176         0.200911      0.018847      1.584506
O       5.83399      5.72042      9.35740         0.320959      0.034221     -0.611920
O       5.76598      9.66532      0.40719         0.030458     -0.327154      1.238419
O       6.01470      9.64877     13.76302        -0.198201      0.005696      0.294026
O       5.92185      9.46379      4.78378        -0.016181     -0.111222      2.314385
O       5.87152      9.61619      9.16311         0.129023     -0.313633      0.983024
O       9.67563      2.01309      0.54285        -0.161936     -0.023209      1.348409
O       9.73042      1.75003     13.64955         0.280269      0.649213      0.870724
O       9.37652     13.48588      0.47530         0.803610     -0.059816      0.758297
O       9.84585     13.66946     13.61342        -0.175551     -1.431503      2.412809
O       9.49213      1.89822      4.90495         0.323246      0.198562      2.059564
O       9.64969     13.28175      4.80075        -0.046870      0.217282      0.713193
O       9.74967      1.64412      9.19765         0.034980      0.438607      0.790231
O       9.68623     13.35509      9.24257         0.151083      0.280216      0.757880
O       9.70553      5.66133      0.40106        -0.300775      0.177009      1.500895
O       9.86539      5.73907     13.61085         0.071034     -0.119317      1.121967
O       9.56224      5.76346      4.96043         0.250753      0.064064      1.079693
O       9.72222      5.76022      9.22941        -0.121789     -0.005330      1.873804
O       9.63550      9.52990      0.39330         0.118930     -0.036377      1.640428
O       9.78766      9.46581     13.61589        -0.183490      0.504046      1.128874
O       9.58198      9.66343      4.87809        -0.239345     -0.387986      1.843824
O       9.58421      9.67725      9.18101         0.580181     -0.319058      1.439444
O       3.85183      1.76405      2.84667        -0.249865      0.675660     -0.519057
O       3.98808      1.83131     15.90786        -0.042030      0.246276     -0.622742
O       3.89410     13.37795      2.94241        -0.790499     -0.088294     -0.551348
O       3.98725     13.46265     15.88785        -0.859103      0.026583     -0.587762
O       0.05093      1.91033      2.76029        -0.178263     -0.261388     -0.411090
O      15.49217      1.81199     15.99456        -0.448299      0.410434     -0.770863
O       0.08198     13.44932      2.93686        -1.082138     -0.159843     -0.654061
O      15.46499     13.39927     15.82226         0.028603     -0.140557     -0.360649
O       3.99917      1.73462      7.05649         0.015491      0.297317      0.029388
O       3.90796     13.41488      7.13156         0.920973     -0.308399     -0.449713
O       0.16361      1.97063      7.15106        -0.413399     -0.989114     -0.257416
O      15.44094     13.41173      7.24488         0.206219     -0.063685     -0.791526
O       4.03950      1.86181     11.55717         0.415548      0.034282     -0.671316
O       4.05579     13.34648     11.52554        -0.017777      0.776612     -0.309081
O       0.17951      1.95055     11.50874        -0.224699      0.017100     -0.769354
O       0.25649     13.30522     11.49179        -0.596590      0.673284     -0.754756
O       3.92392      5.82782      2.76283        -0.635785     -0.511348     -0.504784
O       3.89418      5.73008     15.98790         1.601156     -0.271370     -1.012141
O      15.35288      5.67881      2.77401         1.059502      0.603895     -0.628390
O      15.55635      5.79986     15.83544        -0.145760     -0.188983     -0.202691
O       3.93405      5.70269      7.24516         0.161846      0.402167     -0.758508
O      15.38509      5.58428      7.15724         1.056872      0.625579     -0.444879
O       4.02354      5.79407     11.48076        -0.475764      0.406345     -0.057944
O      15.49677      5.70499     11.55283         0.202614     -0.260973     -0.577294
O       3.90050      9.60969      2.66616        -0.306980     -0.393682      0.109050
O       4.06139      9.66120     16.02154        -1.023281     -0.071398     -1.472711
O       0.08493      9.63221      2.89693        -0.418214     -0.453783     -0.911812
O       0.24734      9.62511     15.85699        -0.697049      0.210014     -0.992728
O       3.89061      9.44182      7.01857         0.293655     -0.410515     -0.306871
O      15.45850      9.45770      7.21875        -0.075737      0.566764     -0.792948
O       3.99404      9.62250     11.39076         0.656341     -0.518268     -0.329194
O       0.23079      9.63173     11.49194        -1.403015     -0.217453     -0.680922
O       7.62694      1.94210      2.74805         1.427971      0.119860     -0.409471
O       7.83357      1.89351     15.88780         0.888982      0.353962     -0.417020
O       7.76504     13.52246      2.76302        -0.945358     -0.391704     -0.205514
O       7.75157     13.48237     15.84537         1.141424     -0.714586     -0.967661
O       7.82045      1.88103      7.26433        -0.078565     -0.048733     -0.677739
O       7.76178     13.20571      7.02477        -0.811197      0.315571     -0.095542
O       7.81605      1.98660     11.57597        -0.292920     -0.911705     -1.398695
O       7.98076     13.42138     11.46798        -1.877870     -0.569602     -0.241919
O       7.76943      5.72001      2.57309        -0.526716      0.052527     -0.166062
O       7.80707      5.83477     15.80708         0.953557     -0.383804     -0.404224
O       7.70633      5.65855      7.21691         0.452418      0.548466     -0.596327
O       7.85549      5.58603     11.65673         0.219249      0.266172     -0.954426
O       7.68112      9.50832      2.55042         1.339313     -0.383338      0.095941
O       7.87708      9.47506     16.04253         0.484457      0.470776     -1.450489
O       7.79044      9.49462      7.18425        -0.576184      0.272632     -0.733588
O       7.77651      9.62974     11.52034         0.757054      0.783497     -0.566560
O      11.50957      1.87679      2.92986         0.333080      0.205700     -1.039693
O      11.69121      1.89455     15.86925         0.901845      0.298219     -0.649767
O      11.58083     13.33375      2.74212        -0.740450      0.787180     -0.574117
O      11.67413     13.30407     15.99375         0.224930      0.369769     -1.322376
O      11.61036      1.76019      7.11444        -0.718529      0.267625     -0.360269
O      11.53286     13.35559      7.11113         1.380713      0.032438     -0.236287
O      11.71793      1.69753     11.39593         0.383707      0.403287     -0.524878
O      11.68848     13.50426     11.45339         0.687438     -0.370749     -0.294722
O      11.62395      5.66408      2.84016        -0.894654      0.456744     -0.499591
O      11.78944      5.67142     15.84409        -0.505647      0.358947     -0.496228
O      11.58610      5.77631      7.15432         0.315247     -0.666121     -0.647927
O      11.65747      5.84692     11.52639        -0.537118     -0.159621     -0.347000
O      11.55893      9.60116      2.87474         0.092393      0.202875     -0.766822
O      11.63836      9.61613     15.93748         2.048538     -0.051633     -1.157714
O      11.70654      9.67355      7.00846        -0.341178     -0.422932     -0.081955
O      11.59369      9.44066     11.47432         0.779321      0.036566     -0.660778
O       1.99930      3.85935      2.87226         0.182418     -0.003989     -1.050596
O       2.05262      3.73613     15.91208         0.087197      0.609447     -0.538793
O       1.95967     15.29091      2.85277         0.028677      0.480027     -0.445830
O       1.99045     15.29530     16.04650         0.289448     -0.157174     -0.972970
O      13.47864      3.75316      2.80444        -0.220729      0.288840     -0.624435
O      13.73424      3.89875     15.91577        -0.244490     -1.566812     -0.689018
O      13.47926      0.03742      2.86320        -0.052935     -1.011282     -0.653567
O      13.57604     15.31376     15.80276         0.176651     -0.148502     -0.550144
O       2.10376      3.71213      7.21737         0.031706      0.872936     -0.545064
O       2.09235     15.26831      7.17356        -0.675727      0.769813     -0.052735
O      13.48556      3.70788      7.15628        -0.256139      1.245474     -0.339236
O      13.53918     15.31823      7.14158         0.410806     -0.835961     -0.303771
O       2.19628      3.83442     11.55112        -0.799724      0.027251     -0.629065
O       2.17913     15.35211     11.53311        -0.422791      0.029263     -0.616394
O      13.45155      3.83388     11.42638         0.382335     -1.152647     -0.278278
O      13.70567     15.29096     11.55933         0.055503      0.513771     -1.135419
O       1.98158      7.64838      2.84187        -0.487648     -0.239902     -0.583112
O       2.11490      7.71915     15.87501         0.100243      0.242236     -1.064318
O      13.37356      7.62013      2.89696         0.836319      1.345847     -0.713933
O      13.69156      7.72769     15.79520        -0.527535      0.297677     -0.375959
O       1.89692      7.57352      7.17987         0.524837      0.172221     -0.510191
O      13.52593      7.58472      7.07682         0.340814      0.897902     -0.195623
O       1.99312      7.71175     11.53126         0.397212     -0.305619     -0.488090
O      13.71920      7.58590     11.66633        -1.230395      0.961024     -1.803015
O       2.01357     11.49405      2.84277        -0.424834     -0.129587     -0.575757
O       2.12465     11.56841     15.93636         0.137069     -0.622055     -0.890658
O      13.51468     11.52170      2.98301         0.337721     -0.065638     -0.904895
O      13.56047     11.47698     15.86987         0.347051     -0.151519     -0.699872
O       2.05655     11.46331      7.23018        -0.501436     -0.444671     -0.892737
O      13.66318     11.45262      7.12792        -0.222631      0.696053     -0.649314
O       2.18874     11.48229     11.48151        -0.355356      0.005926     -0.578720
O      13.56822     11.43691     11.56670        -0.145700      0.190407     -1.010583
O       5.66863      3.73152      2.77325         0.529903      2.326019     -0.794239
O       5.94278      3.80029     15.82490        -0.292258      0.680345     -0.240879
O       5.79437     15.34043      2.89161         0.039792     -0.335114     -0.596076
O       5.94051     15.31308     15.92910        -0.621346      0.127824     -0.826319
O       5.88753      3.76098      7.13701        -0.088333      0.254849     -0.444010
O       5.98839     15.19817      7.02763         0.014908      0.604687     -0.161923
O       5.90522      3.80897     11.54185        -0.375362     -0.601216     -0.704418
O       5.97928     15.29025     11.42899        -0.388226      0.959216     -0.588483
O       5.84847      7.61528      2.57899        -0.100830      0.449309      0.044314
O       5.85151      7.69703     15.99088         0.423909     -0.621587     -1.259269
O       5.91775      7.59172      7.24913        -0.363341      0.793500     -0.598223
O       6.12898      7.72034     11.47903        -1.239011     -0.223142     -0.720698
O       5.86960     11.42902      2.66474        -0.187478      0.690795     -0.154221
O       5.93477     11.57567     15.99759         0.028460     -0.189975     -1.029884
O       5.78835     11.34933      7.09415         0.138285      0.357661     -0.571188
O       5.88942     11.58716     11.46852         0.694768     -1.499691     -0.177910
O       9.68379      3.90575      2.78932        -0.194755     -0.767739     -0.546150
O       9.82803      3.82897     15.81963        -0.235831     -0.039360     -0.340873
O       9.59553      0.08985      2.77852         0.426775     -1.169551     -0.519677
O       9.75818      0.01792     15.92722         0.644092     -0.664197     -0.631679
O       9.75818      3.83308      7.24877        -0.629670     -0.832638     -0.875150
O       9.63047     15.23684      7.01718        -0.091730      0.633480      0.094714
O       9.86977      3.69712     11.42178         0.165275      0.689354     -0.110161
O       9.70657     15.34613     11.58260         0.326811      0.210504     -1.206559
O       9.84744      7.67333      2.64839        -0.815576     -0.598524     -0.073683
O       9.94053      7.60698     15.82010        -0.374914      0.067936     -0.305308
O       9.72781      7.65433      7.18661        -0.521411      0.425198     -0.718188
O       9.52416      7.65023     11.44558         0.814799     -0.073089     -0.678545
O       9.49997     11.48868      2.48376         0.617552     -0.055222      0.315412
O       9.75101     11.50495     15.85677        -0.252925     -0.047196     -0.843123
O       9.70213     11.52189      7.21254        -0.091499     -1.092114     -0.586238
O       9.83540     11.47978     11.50098        -0.182125     -0.089342     -0.386065
