  # total energy = -7881.28943809 
CRSYTAL
PRIMVEC
    15.3600000000000000    0.2300000000000000    0.0000000000000000
     0.0000000000000000   15.3600000000000000    0.0000000000000000
     0.0000000000000000    0.0000000000000000    17.440000000000000
PRESSURE
0.299407 0.386579 -0.854007 0.151291 0.258265 -1.59148
PRIMCOORD
320 1
Pb       3.84416      3.96321      4.15715         0.334847     -0.510798      0.239009
Pb       3.76457      3.94661      0.01038         0.101837     -0.375563     -0.122015
Pb       3.79860     15.28819      4.33754         0.702404      0.218151     -0.334584
Pb       3.79996     15.40360      0.03081        -0.079238     -0.393748      0.121424
Pb       0.17815      3.93833      4.40549        -0.935265     -0.395886     -0.962806
Pb       0.06262      3.81013      0.11574        -0.199020     -0.052225     -0.391980
Pb      15.22617      0.30456      4.36566        -0.229193     -0.390711     -0.335697
Pb      15.27044     15.57794      0.03870         0.116147     -0.198214      0.021898
Pb       3.80823      3.80482      8.52111         0.402364     -0.096712      0.094671
Pb       3.77002     15.31476      8.61953         0.235969      0.510053      0.061959
Pb       0.06377      3.89144      8.63440        -0.083995     -0.814014      0.073240
Pb       0.02938     15.18153      8.62451        -0.201558      0.838874      0.215002
Pb       3.95484      3.85204     13.11566        -0.059144      0.093755     -0.118839
Pb       3.69853      0.17873     13.16095         0.306838     -0.360906     -0.519047
Pb      15.31861      4.00115     13.00763         0.524797      0.005468     -0.352364
Pb      15.26636      0.27102     13.00201         0.524335     -0.186354     -0.178809
Pb       3.89125      7.74857      4.28909        -0.388885      0.191802     -0.108868
Pb       3.76277      7.70219     17.40791        -0.593947      0.600300     -0.179660
Pb      15.17504      7.81150      4.37406         0.681014      0.366203     -0.432428
Pb      15.31786      7.88032     17.36669        -0.008770      0.242640     -0.043657
Pb       3.86283      7.61539      8.68080         0.046703     -0.008304     -0.528012
Pb      15.29130      7.84400      8.67008         0.273575      0.573896      0.118524
Pb       3.79662      7.56826     12.99667        -0.035890      0.031286      0.121002
Pb       0.00289      7.60362     13.02429        -0.195641      0.124396     -0.505823
Pb       3.89865     11.38922      4.25945         0.116288      0.334321      0.232724
Pb       3.87364     11.54041     17.36054        -0.589745      0.176212      0.064507
Pb       0.00667     11.39089      4.32388        -0.508935      0.204199     -0.419525
Pb       0.04884     11.66693     17.38836        -0.004055     -0.428185     -0.170200
Pb       3.79639     11.42387      8.71399        -0.081182      0.168881     -0.314065
Pb       0.00419     11.48515      8.55654         0.058716     -0.179893      0.642683
Pb       3.79725     11.53244     13.04547        -0.148814      0.555280     -0.303687
Pb      15.29951     11.75823     12.93772         0.240714     -0.038791     -0.077664
Pb       7.63609      3.90928      4.30290        -0.162878     -0.072980     -0.341059
Pb       7.61867      4.06344     17.39620         0.211017     -0.379967     -0.203155
Pb       7.68413     15.35078      4.30289        -0.256016     -0.047803     -0.088727
Pb       7.79294      0.21893      0.04960        -0.063347     -0.549535     -0.073568
Pb       7.59439      3.82386      8.65076        -0.270536      0.190471     -0.555168
Pb       7.73704     15.32849      8.75715        -0.476507      0.142175     -0.767989
Pb       7.67134      3.93571     12.99326        -0.664248     -0.283868      0.484584
Pb       7.67067     15.35087     13.15450        -0.372815      0.681297     -1.134372
Pb       7.67081      7.73050      4.33424         0.021090      0.582842     -0.146013
Pb       7.67499      7.74868      0.00884         0.255407      0.341298     -0.848047
Pb       7.69640      7.85878      8.79759        -0.168532     -0.577003     -0.875778
Pb       7.67045      7.82366     13.05411         0.232156     -0.348876      0.467715
Pb       7.70909     11.66036      4.43899         0.183063      0.010468     -0.826103
Pb       7.53650     11.61127     17.37939         0.967064      0.264115     -0.524298
Pb       7.59610     11.59960      8.84688        -0.013672      0.265113     -0.791963
Pb       7.64857     11.73925     13.22193        -0.081274     -0.262562     -1.008684
Pb      11.43779      4.14087      4.45266         0.599876     -0.586657     -0.997363
Pb      11.50185      4.02975      0.05479        -0.232781      0.001456     -0.684365
Pb      11.54309      0.21044      4.43400        -0.136651     -0.096579     -0.820797
Pb      11.45507      0.24384     17.40978        -0.104100     -0.381426      0.145448
Pb      11.42387      3.75778      8.71901         0.193494      0.242876     -0.648949
Pb      11.50982     15.50112      8.66562         0.069029     -0.034363     -0.145570
Pb      11.45514      3.97689     13.04746         0.387474     -0.441748      0.173244
Pb      11.57107      0.28371     12.99432        -0.172989      0.084841     -0.328753
Pb      11.45442      7.81685      4.32569        -0.014464      0.023161     -0.506209
Pb      11.48804      7.83317     17.37246        -0.220333     -0.442498     -0.676637
Pb      11.57912      7.77481      8.73445        -0.224471      0.464912     -0.249002
Pb      11.44156      7.83190     13.08457         0.326468      0.221604      0.310581
Pb      11.55079     11.58857      4.22610        -0.214992      0.261442      0.197693
Pb      11.48958     11.73368     17.31880        -0.656743      0.354901     -0.465487
Pb      11.41543     11.68934      8.77889         0.247388     -0.163037     -0.512900
Pb      11.56232     11.78226     12.98830        -0.087158     -0.111766     -0.179875
Ti       1.92212      1.93935      2.31743         0.133415      0.261413     -0.548965
Ti       1.93430      1.87296     15.54685        -0.376678      0.108629     -1.166691
Ti       1.88154     13.41663      2.42930         0.822116      0.603728     -1.297720
Ti       1.87461     13.40454     15.35291         0.058262      0.257929      0.006257
Ti      13.41285      2.16148      2.37186        -0.706073     -0.066846      1.275845
Ti      13.39749      2.13236     15.42019        -0.078818      0.643165     -0.212070
Ti      13.40429     13.60650      2.36083         0.314375      0.863611      0.018351
Ti      13.37456     13.73122     15.24357         0.153884     -0.296808     -0.006602
Ti       1.83788      1.90722      6.41114         0.709993     -0.178470      1.374430
Ti       1.91762     13.45393      6.54017         0.335454     -0.060716      0.854257
Ti      13.35313      2.10399      6.61853         0.259605     -0.161511     -0.195257
Ti      13.40904     13.63063      6.71767         0.173726      0.169803     -0.674456
Ti       1.99586      1.88192     10.96587        -0.770438      0.258531      0.454449
Ti       1.91892     13.42683     10.90540        -0.243197      0.116195      0.260221
Ti      13.48467      2.15622     10.94387        -0.195427     -1.038347      0.249314
Ti      13.47471     13.67966     10.97519         0.400946      0.350408     -0.727875
Ti       1.91568      5.82402      2.33606        -0.258284      0.423294     -0.230952
Ti       1.81237      5.71924     15.40570         0.595223      0.105924     -0.042668
Ti      13.44259      5.92943      2.32687        -0.546160     -0.832396      0.799053
Ti      13.45090      5.93064     15.28207        -1.415566     -0.271458      1.553567
Ti       1.86621      5.71867      6.54317         1.689896      1.314687     -0.270593
Ti      13.43460      5.93205      6.64458        -0.762762     -0.338055     -0.046127
Ti       1.93298      5.72689     10.96344        -0.215664     -0.830645      0.807984
Ti      13.31022      5.94954     11.02465         1.699644     -0.766495     -0.551799
Ti       1.92947      9.62879      2.33089         0.129335     -1.768320     -1.537462
Ti       1.80239      9.56471     15.35913         1.054200      0.761775      1.266695
Ti      13.40673      9.69187      2.15028         0.307452      1.155895      0.692077
Ti      13.35872      9.86914     15.32455         1.333515     -0.385496     -0.853667
Ti       1.85793      9.54620      6.70255         1.399195     -0.688519     -0.118649
Ti      13.39378      9.77554      6.67456        -0.228216      0.198730      2.960304
Ti       1.88784      9.58211     11.08086        -0.648208      0.013271     -1.897671
Ti      13.42062      9.71798     10.99795         0.227385      0.811592     -1.167561
Ti       5.74188      1.97539      2.29316        -0.196202     -0.558218      0.186896
Ti       5.77116      2.00246     15.62707         0.074058      0.860470     -1.154180
Ti       5.72809     13.39243      2.26504         0.466831      0.998153      0.508044
Ti       5.66852     13.58308     15.34113         0.162742     -0.399591      0.362268
Ti       5.64760      1.93058      6.52956         0.698404     -0.102729      0.527239
Ti       5.74672     13.49489      6.69082         0.099361      0.367899      1.255279
Ti       5.69983      1.95906     10.95617         1.804486      0.206399      0.321888
Ti       5.70641     13.54710     11.00057         0.057077      0.699899      0.287686
Ti       5.79982      5.89164      2.19839        -0.309675     -0.372405      0.425103
Ti       5.64051      5.96090     15.43213         1.067491     -1.545454     -0.007106
Ti       5.76600      5.80738      6.52810         0.623616      0.051566      1.799347
Ti       5.82158      5.82956     11.00608        -0.779539     -0.789225      0.660480
Ti       5.80921      9.66301      2.14264         0.259232     -0.227781      0.612853
Ti       5.69435      9.69513     15.31204         0.393926      0.840917      1.406258
Ti       5.72338      9.65722      6.67670        -0.013351     -0.623302      0.551593
Ti       5.72199      9.65578     11.16057         0.109616      0.390922     -0.067715
Ti       9.56515      2.09402      2.42408         0.724799     -0.377102     -0.826448
Ti       9.58898      2.11636     15.38640         0.052722     -0.530329      1.211837
Ti       9.59520     13.51972      2.30665         0.263693      0.902989      0.325861
Ti       9.52722     13.62885     15.25368         0.527525     -0.149529      0.584266
Ti       9.49631      1.97809      6.53676        -0.110278     -0.079297      1.868461
Ti       9.64478     13.51984      6.58827        -0.967342      0.511991      0.018383
Ti       9.51032      2.05680     10.91357        -0.055367     -0.479312      1.342248
Ti       9.66555     13.65348     11.07694        -0.932685     -0.117598      0.561771
Ti       9.51560      5.92697      2.28620         1.974884     -0.047053     -0.445868
Ti       9.51934      5.90480     15.28248         0.154864     -0.257311      3.334669
Ti       9.64300      5.87478      6.69803        -1.612769      0.029162     -0.027279
Ti       9.59512      5.85842     11.03652        -0.527085      1.049694      1.278132
Ti       9.58055      9.71354      2.22260        -0.245077      1.051594     -0.488414
Ti       9.57576      9.75636     15.30469        -0.761446      0.454347      0.675448
Ti       9.58270      9.70992      6.63290         0.008285      0.885098      1.893083
Ti       9.58668      9.84617     11.09217        -0.084972     -0.157524      0.885742
O       2.04262      2.06601      0.47924        -0.540836     -0.522962      0.936992
O       1.94161      1.81716     13.64675         0.094944      0.224982      2.003212
O       1.99681     13.33592      0.63174        -0.762502      0.139818      0.844917
O       1.89169     13.45271     13.58134         0.085500      0.127128      0.484365
O      13.29866      2.12290      0.62988         0.092723      0.027476     -0.714748
O      13.38782      2.02733     13.62508         0.234425      0.408183      0.674987
O      13.50469     13.89267      0.60388        -0.514217     -1.047361      0.315919
O      13.56109     13.67320     13.43292        -0.510766      0.152005      1.307329
O       2.05575      2.03593      4.63150        -0.621351     -0.334975      1.003487
O       1.96774     13.50372      4.77611        -0.162356     -0.373525      0.066134
O      13.33463      2.02843      4.83890         0.260914     -0.175266      0.543241
O      13.57947     13.67788      4.93427        -0.370670     -0.310536      0.377634
O       1.96755      2.00049      9.22108        -0.170494      0.260601      0.282384
O       1.76859     13.40115      9.12451         0.417347     -0.010304     -0.129113
O      13.45414      2.21538      9.18461        -0.104120      0.105312     -0.240342
O      13.49147     13.83073      9.16061        -0.064530     -0.615382      0.491058
O       1.79824      5.89879      0.56195         0.138908     -0.331191     -0.528877
O       1.96883      5.66889     13.66607        -0.496675      0.363180     -0.377032
O      13.51545      5.90243      0.59529        -0.245203      0.156666     -0.547088
O      13.32318      5.93963     13.55453         0.412356     -0.015969     -0.950116
O       1.88363      5.77601      4.75459        -0.076834     -0.138416      0.381262
O      13.43337      6.00872      4.87560        -0.016542      0.217386      0.120795
O       1.86363      5.58763      9.21153         0.035318      0.250881     -0.529885
O      13.30513      5.90011      9.21085         0.249083     -0.051217      0.376289
O       1.98194      9.60795      0.53734        -0.088845     -0.111649      0.634840
O       1.73746      9.69007     13.63891         0.275277     -0.470115     -1.309752
O      13.39713      9.77092      0.40780        -0.072343     -0.036205     -0.428452
O      13.44820      9.85314     13.45106        -0.265614     -0.131178      1.777299
O       2.03055      9.42554      4.94582        -0.181230      0.612463     -0.875300
O      13.28598      9.83407      4.99681         0.592379     -0.182828     -2.477464
O       1.84802      9.50392      9.22009         0.199154      0.150612      1.406052
O      13.59522      9.61378      9.16913        -0.315404      0.342910      1.358240
O       5.87482      1.89503      0.52145        -0.571234      0.144586      0.069094
O       5.73150      2.05970     13.84827        -0.011321     -0.113294     -0.162077
O       5.86090     13.37451      0.52208        -0.611819      0.426747      0.190774
O       5.59685     13.54216     13.54562         0.414987      0.042913      0.601835
O       5.53883      2.00092      4.76755         0.484551      0.229912     -0.139670
O       5.75849     13.42720      4.97831        -0.081967     -0.350207     -1.703701
O       5.82256      2.06609      9.22577        -0.422013     -0.312486     -0.509494
O       5.70732     13.69406      9.23196         0.313179     -0.498122     -0.184583
O       5.95777      6.04850      0.43823        -0.712963     -0.370612      0.234831
O       5.66284      5.69317     13.71506        -0.211179      0.463133     -0.934007
O       5.88453      5.80851      4.76426        -0.018832      0.162942     -0.114733
O       5.88335      5.81255      9.27730        -0.126210      0.253125     -0.293839
O       5.90477      9.79587      0.37602        -0.534917     -0.545368      0.362936
O       5.64336      9.89498     13.58189         0.146820     -0.480860     -0.925162
O       5.64513      9.54203      4.91890         0.122583      0.417800      0.043031
O       5.76531      9.57667      9.37873         0.035089      0.312831      0.652555
O       9.66446      2.12108      0.60828        -0.189268     -0.682249      1.223839
O       9.60278      2.08654     13.64736        -0.033254      0.007578     -0.445293
O       9.60272     13.67305      0.53455         0.290948     -0.405488      0.511486
O       9.61357     13.61755     13.42046        -0.466252      0.139373      1.192716
O       9.60541      1.99419      4.80613        -0.272367      0.435313     -0.708797
O       9.57294     13.51223      4.81074        -0.065255     -0.358549      0.978658
O       9.51313      2.02877      9.14535         0.204315      0.060053      0.453311
O       9.63944     13.61180      9.31844        -0.157071     -0.028572     -0.796610
O       9.47140      5.99710      0.49569         0.283970      0.035987      0.680092
O       9.53001      5.80518     13.61046         0.448844     -0.105105     -2.448197
O       9.53807      5.99390      4.86149         0.329950     -0.180708      1.404409
O       9.55369      6.07911      9.30905         0.315649     -0.629463      0.088853
O       9.50966      9.77796      0.41457         0.646698     -0.332807      0.960058
O       9.74603      9.91414     13.54413        -0.140854     -0.201787      0.386950
O       9.66969      9.75959      4.91037        -0.128212     -0.219608     -0.584345
O       9.30224      9.87546      9.35000         0.502637     -0.147470      0.001951
O       3.83409      2.21557      2.60026         0.436372     -0.541622     -0.322620
O       3.83808      1.98619     15.96935        -0.674569     -0.295892     -0.235152
O       3.86917     13.41465      2.75374         0.031357     -0.018518      0.025097
O       3.77435     13.48907     15.92896         0.311220     -0.035133     -0.853901
O      15.32371      2.19270      2.57821         0.815553     -0.387232      0.365646
O       0.00504      1.91474     16.02158        -0.437222      0.128130     -0.846918
O       0.03627     13.60914      2.74439         0.038307     -1.216541      0.118372
O      15.24814     13.73557     15.90426         0.217435     -0.269929     -0.639013
O       3.83406      1.88722      7.09545        -0.968081      0.308943     -0.547544
O       3.81029     13.60406      7.12069        -0.931333     -1.013308     -0.691102
O      15.30894      2.14052      6.90591         0.808341      0.536680     -0.343958
O      15.34494     13.77814      6.95813         0.668942     -0.811189      0.094242
O       3.92710      1.99788     11.51220        -1.654629     -0.108968     -0.109810
O       3.77062     13.48649     11.28270         0.713327     -0.368303      0.229282
O       0.05808      1.90611     11.44716         0.012768     -0.017175     -0.250737
O       0.05045     13.59456     11.34707        -0.501060     -0.762460      0.113671
O       3.89223      5.72808      2.52453         0.705361      0.315573     -0.072669
O       3.76553      5.92044     15.74866        -0.124344     -0.139543      0.737603
O      15.34019      6.00476      2.78130        -0.147641      0.327496      0.133533
O      15.27880      5.72614     15.74899         0.729748      0.825681     -0.091064
O       3.88400      5.78136      6.92047        -0.120118     -0.017958      0.073893
O       0.02609      5.60211      6.89637        -0.909282     -0.025199      0.389776
O       3.85165      5.86064     11.35192        -0.348179     -0.148922      0.069106
O      15.25238      5.98243     11.34260         0.456700     -0.032407      0.368670
O       3.90463      9.56191      2.67451         0.242364     -0.034122      0.013482
O       3.79632      9.70276     15.83094         0.211125     -0.373250     -0.473690
O       0.04177      9.50176      2.54700        -0.662680      0.090321      0.796388
O       0.03481      9.69379     15.83705        -1.986397     -0.397268      0.027701
O       3.83973      9.47096      7.25149        -0.209147      0.836502     -0.258319
O       0.05411      9.46123      7.09078        -1.168087      0.568593     -0.345848
O       3.75262      9.59903     11.51533         1.001706      0.042623     -0.194502
O      15.33726      9.74177     11.44235        -0.390155     -0.002223      0.080405
O       7.64749      2.07663      2.73143         0.596087     -0.728136      0.290558
O       7.68453      2.01986     15.99357         0.166603      0.310023     -0.708213
O       7.71998     13.47050      2.75150        -1.412929     -0.170150      0.076607
O       7.67582     13.56942     15.74403        -0.553193      0.245863     -0.789711
O       7.63139      2.02302      6.94130         0.291532     -0.057497     -0.189713
O       7.64747     13.54669      6.99474         0.682731     -0.412735      0.481757
O       7.63710      2.07063     11.35855         0.770052      0.354580      0.168848
O       7.64244     13.48774     11.35365         0.239410      0.219342      0.493023
O       7.74296      6.01198      2.67364        -1.159037     -0.524164      0.271931
O       7.60635      5.83936     15.73127         0.777788      0.244012      0.167217
O       7.72154      5.85225      7.15072         0.045575      0.067580     -0.705830
O       7.65725      5.93626     11.61864         1.161549     -0.250931     -0.895698
O       7.72768      9.66911      2.69565        -0.520842      0.350073     -0.019473
O       7.67293      9.84983     15.71719         0.102145     -0.398555     -0.795183
O       7.59117      9.78735      7.01577         0.960166      0.141962      0.132776
O       7.72757      9.70645     11.69123        -0.877863      0.482161     -0.813259
O      11.48132      2.10625      2.87114        -0.261401     -0.203376     -0.293659
O      11.52465      2.00518     15.93037        -0.247994      0.779380     -0.695825
O      11.59216     13.52978      2.81110        -0.571043      0.197224     -0.563945
O      11.43342     13.62970     15.64611         0.989947      0.055711      0.094973
O      11.43156      1.99489      7.06017         0.277809      0.293677      0.071040
O      11.49346     13.62791      7.07350         0.571689     -0.073257      0.012446
O      11.52796      2.02683     11.36619        -0.508179      0.363500     -0.287172
O      11.55616     13.78012     11.37957         0.139149     -0.242964      0.001120
O      11.51755      5.86577      2.76039        -0.209600      0.666160     -0.103054
O      11.39411      6.02230     15.81393         1.199004     -0.325283     -0.077433
O      11.50841      6.07015      7.07905        -0.222649     -0.325179     -0.291702
O      11.52183      5.87929     11.54268        -1.062551     -0.144830     -0.414289
O      11.52821      9.72431      2.63030        -0.056987      0.503967     -0.067026
O      11.54132      9.69297     15.76204         0.025550      0.310298     -0.045332
O      11.54266      9.76401      7.18944        -0.524876     -0.116692     -0.124093
O      11.49850      9.89855     11.26467         0.449703     -0.423755      0.063557
O       1.86636      3.93064      2.68256        -0.121851     -0.460720      0.102237
O       1.92123      3.85142     15.92010         0.275955     -0.193017     -0.318589
O       2.08094      0.08196      2.68404        -0.304651     -0.323374     -0.306753
O       1.88982     15.27267     15.89109         0.153447      1.550676     -0.075461
O      13.43339      4.03587      2.88077        -0.023205      0.284895     -0.386730
O      13.25264      4.06429     15.75851         0.234093     -0.918136      0.014015
O      13.42395     15.53455      2.82701        -0.099343      0.314373     -0.025672
O      13.33251      0.23021     15.70158         0.599752     -0.534878      0.198549
O       2.03691      3.79165      6.89105        -0.683249      0.040295      0.038008
O       1.87646      0.04197      6.97559         0.149350      0.021142     -0.583560
O      13.23002      4.00445      6.82584         0.289464      0.666425      0.732627
O      13.39829      0.22309      7.15246        -0.021130     -0.351868     -0.540073
O       1.88647      3.86311     11.49606         0.198414     -0.061981     -0.370185
O       2.01549     15.31485     11.25472        -0.011554      1.667594      0.370677
O      13.44994      3.93446     11.45764        -0.257262      1.448154      0.009518
O      13.51407      0.22030     11.40491        -0.332210      0.724741      0.086610
O       2.07258      7.63562      2.72051        -0.448062      0.929356      0.149254
O       1.87831      7.67732     15.77974        -0.615867     -0.212183     -0.049490
O      13.36945      7.89075      2.66666         0.366576     -0.613040      0.263535
O      13.58264      7.79651     15.69331        -0.388287      1.216393      0.058658
O       1.91268      7.60911      6.91740        -0.091775     -1.009643      0.740458
O      13.49517      7.87652      7.00309         0.090731     -1.113291      0.164812
O       1.90471      7.63749     11.44424        -0.292488      0.006810      0.236671
O      13.32588      7.86168     11.27890        -0.082866     -0.305070      0.534660
O       2.05649     11.44584      2.69905        -1.012130      1.151137      0.654967
O       1.80643     11.55554     15.72864         0.343672      0.203241      0.349564
O      13.47386     11.62511      2.78487         0.611087      0.287535     -0.488865
O      13.33533     11.77570     15.64104         0.189818     -0.477604      0.175733
O       1.90677     11.47112      6.93824         0.063117      1.001923      0.030984
O      13.48509     11.69830      7.15871        -0.102082      0.419403     -0.448803
O       1.85159     11.49458     11.39368         0.016970      0.047280     -0.132939
O      13.43261     11.80258     11.21016         0.292238     -0.795488      0.344916
O       5.93920      3.90630      2.55596        -0.277958      1.355213      0.187175
O       5.68707      3.99905     15.90490        -0.058899     -0.486969      0.477698
O       5.70971     15.38134      2.71823         0.055724      0.023675     -0.213604
O       5.69643     15.43443     15.79825         0.065945     -0.355203      0.208463
O       5.78519      3.84464      7.07472        -0.174347      0.999935     -0.619636
O       5.71489     15.43620      6.97477         0.229325     -0.125153      0.151480
O       5.78060      3.96469     11.43381        -0.105746     -0.455501      0.158356
O       5.85296      0.11372     11.40126        -0.394414     -0.299514      0.282015
O       5.88961      7.79380      2.54438        -0.512239     -0.684818      0.344107
O       5.83932      7.85338     15.66266        -0.434861     -0.105437      0.122687
O       5.79609      7.72427      7.10721         0.035459     -0.384429     -0.255271
O       5.78012      7.70864     11.56465        -0.204123      1.234496     -0.085818
O       5.72530     11.47812      2.65886         0.330822      0.784204      0.350123
O       5.72173     11.68375     15.76596        -0.009863     -0.333746     -0.237369
O       5.65821     11.58829      7.21212        -0.237000     -0.427760     -0.234810
O       5.71635     11.64277     11.39761        -0.050562     -1.232482     -0.075914
O       9.64024      4.02370      2.67915        -0.681320      0.039844      0.359853
O       9.63241      3.92299     15.88750        -0.168610      1.029229     -0.429073
O       9.53834     15.39160      2.88683         0.444159      1.035691     -0.825549
O       9.55882      0.18051     15.77351        -0.048769     -0.509563     -0.120183
O       9.60840      3.93141      7.13413         0.328385      0.882330     -0.771126
O       9.57487     15.45028      6.99197        -0.111549      0.015274      0.045368
O       9.61252      3.98023     11.56915        -0.098193     -0.043365     -1.405935
O       9.48607      0.20755     11.43081         0.133378     -0.002002     -0.060483
O       9.65992      7.89779      2.69802        -0.001814     -1.105097      0.046371
O       9.61263      7.81415     15.56299        -0.553880      1.065341      0.223647
O       9.55308      7.93087      7.20777         0.050317     -1.008199     -0.491632
O       9.70493      7.81935     11.63906        -0.753878      0.015100     -1.048583
O       9.60401     11.68009      2.75369         0.230664     -1.325386     -0.235114
O       9.55905     11.72542     15.76825         0.786083     -0.266547     -0.288943
O       9.71338     11.68666      7.14237        -0.745070     -0.581016     -0.191323
O       9.69979     11.77471     11.48577        -0.411044     -0.945064     -0.316965
