  # total energy = -7881.18903303 
CRSYTAL
PRIMVEC
    15.3600000000000000    0.0000000000000000    0.0000000000000000
     0.0000000000000000   15.3600000000000000    0.0000000000000000
     0.2400000000000000    0.0000000000000000    17.440000000000000
PRESSURE
2.89732 2.98898 6.76516 0.013607 -0.744015 0.007795
PRIMCOORD
320 1
Pb       3.81335      3.76842      4.34848        -0.090249      0.649718     -0.011247
Pb       4.04292      3.82346     17.39705        -0.051267      0.730514     -0.209534
Pb       3.88987      0.06195      4.28641         0.349298     -0.663772      0.679660
Pb       4.01241     15.34000     17.39420         0.230255     -0.158104      0.176635
Pb      15.41917      3.88651      4.31432        -0.416584      0.124043      0.057553
Pb      15.59737      3.79349     17.37299        -0.362885      0.183272      0.228390
Pb      15.40151      0.02224      4.26268        -0.247907     -0.092270      0.839831
Pb       0.05243     15.25823      0.01756        -0.707265      0.203928     -0.186060
Pb       3.83050      3.93103      8.74187         0.557823     -0.574188      0.040739
Pb       3.99813     15.33221      8.53305        -0.277566     -0.182954      0.688843
Pb      15.47024      3.79713      8.66851         0.279553      0.427789      0.247677
Pb      15.41063     15.34879      8.61872         0.237881     -0.688709     -0.176061
Pb       4.06777      3.82044     12.98488        -0.493155     -0.408674      0.663399
Pb       3.98264     15.35940     12.98288         0.151632     -0.179756      0.845035
Pb      15.46789      3.87292     12.99536         0.398038     -0.302217      0.536386
Pb      15.49520     15.30919     13.06474         0.116866      0.440850      0.201374
Pb       3.88754      7.69180      4.38750        -0.016984      0.001749     -0.560040
Pb       4.10252      7.73365     17.39971         0.051264     -0.329300      0.155189
Pb       0.06516      7.66589      4.28697        -0.278068      0.246079      0.105561
Pb       0.01788      7.60999      0.01550        -0.659014      0.590006     -0.020723
Pb       3.98793      7.58781      8.62245        -0.576327      0.434941      0.814225
Pb      15.37849      7.60780      8.57791         0.369903      0.139969      0.537423
Pb       3.90377      7.51156     13.17269         0.451663      0.946743     -0.336249
Pb       0.25082      7.67079     12.94425        -1.392749     -0.154155      1.143478
Pb       3.97859     11.46051      4.36260        -0.433374      0.180190      0.379017
Pb       3.92833     11.54936     17.24830         0.618396      0.107171      1.355900
Pb      15.31983     11.50707      4.38711         0.208849      0.042901      0.119200
Pb      15.54045     11.54891     17.37680        -0.104934     -0.425705      0.465517
Pb       3.99148     11.47388      8.64373        -0.574908      0.100848      0.057910
Pb      15.36994     11.57205      8.68034         0.491206     -0.015609     -0.542121
Pb       4.03283     11.57035     12.85413        -0.217638     -0.615523      1.502624
Pb      15.49646     11.50948     12.98906         0.297199     -0.324788      0.700023
Pb       7.73710      3.86190      4.28373         0.113015     -0.197420     -0.265598
Pb       7.81365      3.69633     17.32869         0.214999      0.698459      0.128325
Pb       7.69617     15.28347      4.27851        -0.020136      0.760399     -0.026171
Pb       7.92603     15.33503     17.43646        -0.137898     -0.054374     -0.124889
Pb       7.81182      3.80909      8.69340        -0.137365     -0.218060      0.368524
Pb       7.70034      0.04692      8.69215         0.426826     -0.010690      0.437975
Pb       7.87147      3.83845     13.11319        -0.122885     -0.190918     -0.081487
Pb       7.95886     15.26264     13.06747        -0.319355      0.336446      0.098846
Pb       7.64329      7.60259      4.41587        -0.034623      0.397735     -1.095442
Pb       7.88670      7.71063     17.27584        -0.025202     -0.113101      0.435759
Pb       7.71027      7.68484      8.60472         0.650384     -0.199604      1.101467
Pb       7.82809      7.63264     12.98520         0.345626      0.161172      0.320181
Pb       7.72810     11.55414      4.40377        -0.166204     -0.616512     -0.645424
Pb       7.95909     11.46649     17.30598        -0.327679      0.453763      0.535980
Pb       7.78401     11.46696      8.65874         0.212572      0.279893      0.445628
Pb       7.83951     11.43138     12.97997         0.267818     -0.085997      0.204552
Pb      11.54474      3.83978      4.24277         0.070158      0.069886      0.182552
Pb      11.79932      3.75846     17.40697        -0.005265      0.911344      0.392817
Pb      11.52386      0.00346      4.18529         0.126088      0.591872      1.023118
Pb      11.40585     15.34797      0.07607         0.290072     -0.257640     -0.047775
Pb      11.60129      3.79141      8.67202        -0.097764      0.164112     -0.046056
Pb      11.67836      0.02584      8.62531        -0.314836     -1.117973      0.484352
Pb      11.68555      3.71281     13.01621        -0.076641      1.003667      0.126227
Pb      11.75069      0.07909     13.03932        -0.540871     -0.599307      0.048890
Pb      11.50686      7.68797      4.12086         0.382351      0.127908      0.726853
Pb      11.68335      7.68209     17.37345         0.465432     -0.130406     -0.047404
Pb      11.55427      7.65716      8.75509         0.188278      0.276834     -0.349688
Pb      11.68870      7.68443     12.98850         0.162564     -0.710270      0.018461
Pb      11.55203     11.49835      4.41434         0.511906     -0.143193     -0.395696
Pb      11.80680     11.53420     17.38312        -0.062002     -0.496808      0.236715
Pb      11.55930     11.40564      8.74283         0.080174      0.299004     -0.339179
Pb      11.75563     11.41001     13.03659        -0.670288      0.139415      0.233910
Ti       1.91820      1.92061      2.37548        -0.195690      0.386718      2.138725
Ti       2.06073      1.96152     15.40124        -0.750441      0.161266     -0.595148
Ti       1.94548     13.40886      2.43883         0.363831     -0.087896      2.401785
Ti       2.09886     13.50041     15.35782        -0.282982     -0.678897      1.257212
Ti      13.45945      1.92264      2.33666        -0.760148      0.715638      1.016281
Ti      13.61342      1.83758     15.48689         0.754689      0.514656      1.077814
Ti      13.47752     13.47534      2.38451        -0.143454     -1.134940      1.632715
Ti      13.52426     13.40474     15.40506         1.125033      0.076208      1.740182
Ti       2.02970      1.89308      6.74345         0.250917      0.383143      1.187860
Ti       2.07479     13.37909      6.59637        -0.842781     -0.497581      2.767088
Ti      13.55317      1.90770      6.78036        -0.584182     -1.146241     -1.423817
Ti      13.45140     13.36628      6.66647         0.977508      0.010786      0.494968
Ti       2.07173      1.85458     11.11406        -0.104730      0.774949      1.441598
Ti       2.00872     13.41854     11.09201         0.299061     -0.856703      1.330634
Ti      13.58913      1.92850     11.03545         1.089663     -0.638462      0.455086
Ti      13.53404     13.42319     11.13395        -0.132008      0.181968     -0.435846
Ti       1.93921      5.79152      2.26342         0.612150     -0.014604      3.763804
Ti       2.06446      5.81756     15.37563         0.433302     -0.740207      3.335735
Ti      13.49467      5.81142      2.30073        -0.513485     -0.009442      1.376202
Ti      13.66894      5.76243     15.40115        -0.371472      0.421159      0.939312
Ti       2.00576      5.76552      6.64438        -0.802337     -0.513348      1.306707
Ti      13.48971      5.68612      6.73468         0.657630      0.138515      0.821094
Ti       2.05417      5.71797     11.00719        -0.134743     -0.082326      3.249477
Ti      13.63336      5.69260     11.00895        -1.061390      1.004371      1.912129
Ti       1.99393      9.63517      2.37012        -0.506274      0.114613      1.145570
Ti       2.07626      9.61926     15.43228        -0.081307      0.118231      1.412635
Ti      13.50896      9.64576      2.36841         0.149891     -0.189017     -0.782858
Ti      13.69354      9.53045     15.37646        -0.590739     -0.102895      0.812865
Ti       1.92784      9.52807      6.71371         1.248155      0.675821      0.664819
Ti      13.51516      9.56916      6.68852        -0.663854     -0.181789      0.153436
Ti       2.10885      9.53993     11.12461         0.244772      0.382560     -1.083548
Ti      13.65393      9.57710     11.02905        -0.463699     -0.997880     -1.408097
Ti       5.74006      1.95638      2.32607         0.908475     -0.545224      0.992947
Ti       5.84306      1.92557     15.42628         1.293304      0.090917     -0.598423
Ti       5.72139     13.38687      2.38187         0.077454     -0.233432      0.284688
Ti       5.96663     13.52280     15.43087         0.197631     -0.159769      0.897063
Ti       5.80901      1.94595      6.70393         0.764097      0.274655      0.427065
Ti       5.94794     13.45830      6.69930        -1.469837     -1.372339     -0.853723
Ti       5.96611      1.86639     11.14548        -0.118107      0.192421     -0.601265
Ti       5.90469     13.46442     11.07982         0.608659     -0.078278     -0.552506
Ti       5.75126      5.67550      2.23293         0.125726      1.717330     -0.386755
Ti       5.96785      5.83079     15.41750        -0.413575     -0.804368      2.038958
Ti       5.82075      5.69235      6.77152        -0.095221     -0.087146      1.056029
Ti       5.89649      5.71509     11.14481         0.613571      0.373339     -1.898512
Ti       5.82212      9.56159      2.33277        -0.032181     -0.626331      1.455227
Ti       5.87994      9.76892     15.42226         0.990116     -1.275853      2.180795
Ti       5.81572      9.58337      6.71278         0.082250     -0.004645      0.281966
Ti       5.86551      9.57958     11.03379         0.714164     -0.568121      2.552195
Ti       9.57599      1.94771      2.23662         0.150303      0.389650      1.793481
Ti       9.81471      1.91312     15.45938        -0.362038     -0.687433      0.656740
Ti       9.55420     13.40759      2.40361         1.539034      0.336133      0.467983
Ti       9.79609     13.44416     15.37427        -0.586437     -0.146373      1.645405
Ti       9.68637      1.85796      6.72280         0.140691      0.685946      2.191884
Ti       9.63818     13.51915      6.66568         1.332690     -1.422838      2.693576
Ti       9.77201      1.89410     10.98806        -1.220242     -0.467308      0.049281
Ti       9.73114     13.42170     11.06307         0.370416     -0.375299     -0.087002
Ti       9.59177      5.83219      2.23689         0.370213     -0.783221     -0.717743
Ti       9.75353      5.69160     15.44276         0.880998      1.500573      0.284352
Ti       9.66511      5.78717      6.74891         0.742515     -0.630438      1.763045
Ti       9.71704      5.66120     11.04141         0.583870      1.169624      0.986732
Ti       9.64758      9.64916      2.22202        -0.184847     -0.607381      2.760733
Ti       9.82455      9.62681     15.41445         0.115424     -0.439432      0.149877
Ti       9.66628      9.62281      6.66762         1.475393      0.224323      1.410598
Ti       9.77137      9.57630     11.13546        -0.608151     -0.845099      0.246691
O       1.90705      1.88368      0.71672         0.189835     -0.023664     -2.878548
O       1.93563      2.02626     13.66430         0.343104     -0.250579     -0.100079
O       1.71355     13.54454      0.76947         0.851300     -0.084775     -2.275867
O       2.08147     13.37116     13.66812        -0.215614      0.215525     -1.502015
O      13.22538      1.91576      0.65445         0.676515     -0.047722     -1.458352
O      13.59624      1.95287     13.76290        -0.260984     -0.344472     -1.162313
O      13.38221     13.35331      0.68823         0.181456      0.066270     -1.779727
O      13.68441     13.33657     13.70100        -0.301528      0.235662     -1.071142
O       2.01925      2.06425      5.05238         0.039210     -0.307563     -1.828633
O       2.01019     13.32246      4.94428         0.084593      0.498943     -2.776451
O      13.37894      1.90444      5.04621         0.536694      0.171697     -0.736911
O      13.45742     13.34622      4.95833         0.006503      0.056406     -1.628762
O       2.07419      1.82021      9.42654         0.184950      0.078673     -2.097276
O       1.99109     13.16870      9.42484        -0.003415      0.674041     -1.491091
O      13.79004      1.82435      9.31125        -0.666350     -0.015896     -0.538971
O      13.57741     13.50972      9.40494         0.282107     -0.237635     -0.601243
O       1.81624      5.76648      0.62268         0.011033     -0.114068     -3.284397
O       1.95080      5.72056     13.71586         0.304072      0.192519     -2.836988
O      13.46355      5.93037      0.61230         0.093048     -0.289391     -1.543725
O      13.68203      5.83060     13.68430        -0.109678     -0.441584     -1.197783
O       2.01471      5.71312      4.94446        -0.212165      0.061558     -1.954960
O      13.42417      5.76519      5.04984         0.345157     -0.371995     -2.044604
O       2.01815      5.80385      9.36205         0.321597     -0.127248     -3.117635
O      13.61163      5.57785      9.33027         0.013350      0.262917     -2.414138
O       1.86073      9.70662      0.65614         0.400185     -0.208004     -0.961921
O       2.21319      9.42426     13.76967        -0.233035      0.312788     -2.317574
O      13.51535      9.56417      0.61072         0.039770      0.373239     -0.378454
O      13.67926      9.50222     13.63403        -0.305141      0.465414     -1.071578
O       2.11017      9.38843      5.00053        -0.356007      0.324528     -0.682879
O      13.44156      9.63058      4.93690         0.065850     -0.131042     -0.238049
O       2.05917      9.59096      9.40029         0.111291     -0.176395     -0.713140
O      13.54506      9.59689      9.18680         0.247822     -0.211511      1.895444
O       5.69370      1.93459      0.60744         0.006795      0.026227     -1.125084
O       6.02179      1.96325     13.68723        -0.419235     -0.226464     -0.282771
O       5.57479     13.42814      0.65986         0.209378      0.154094     -0.407075
O       5.96973     13.62016     13.71398         0.156025     -0.492284     -0.783784
O       5.85107      2.12580      4.99100        -0.214134     -0.344346     -0.913974
O       5.80795     13.40984      4.93453         0.927098     -0.211792      0.186104
O       5.86112      1.76783      9.39754        -0.027236     -0.000688     -0.686899
O       6.01364     13.26227      9.33677        -0.351229      1.054937     -0.513300
O       5.62774      5.77561      0.48547         0.604619     -0.365044     -0.504620
O       6.18238      5.67608     13.72700        -0.587612      0.112198     -1.894952
O       5.96991      5.74116      5.07195        -0.100314     -0.074902     -1.119028
O       5.87712      5.74450      9.34369        -0.220196     -0.025625      0.356308
O       5.56813      9.59428      0.65157         0.412269     -0.066497     -1.810118
O       5.94786      9.70461     13.76422        -0.028905      0.013750     -2.781632
O       5.76378      9.38910      4.99206         0.310349      0.227241     -0.766712
O       5.78674      9.65653      9.37505         0.325164     -0.329811     -2.915536
O       9.61713      1.87837      0.52634        -0.198343     -0.071000     -1.881065
O       9.93487      1.85470     13.72575        -0.049013      0.221587     -0.603455
O       9.71173     13.55433      0.70940        -0.319984     -0.439949     -1.321992
O       9.76544     13.42247     13.69551        -0.177895      0.127118     -2.373733
O       9.70203      1.74196      5.05883        -0.218315      0.412417     -2.182452
O       9.50036     13.46107      4.97457         0.208384      0.042704     -2.328212
O       9.69280      1.87086      9.24515         0.119910      0.087399      0.100906
O       9.66130     13.44201      9.33737         0.059097     -0.271031     -0.277583
O       9.66885      5.82028      0.49018        -0.192411      0.020122     -0.156899
O       9.69993      5.71839     13.68697         0.130716     -0.228961     -0.264389
O       9.59618      5.82116      5.07024        -0.136772     -0.054929     -2.017073
O       9.73225      5.64549      9.32344         0.070522      0.127054     -1.318414
O       9.58141      9.60536      0.54227        -0.100744      0.253612     -2.290991
O       9.73339      9.67818     13.68981         0.235047     -0.282050     -1.227109
O       9.77056      9.56212      4.97719        -0.196847      0.135588     -1.681127
O       9.82696      9.63179      9.42827         0.065640     -0.316382     -2.157825
O       3.87745      1.94976      2.78506         0.046385      0.112442      0.011325
O       3.96702      1.99259     15.79389         0.187887     -0.402252      0.145260
O       3.90504     13.42297      3.00895        -0.333469     -0.017188     -0.984606
O       4.07785     13.52216     15.83427        -0.852531     -0.153034     -0.071426
O      15.35638      1.85049      2.71656         0.385659      0.309334      0.265038
O      15.51675      1.81414     15.93135         0.506878      0.412741      0.049438
O       0.08484     13.48784      2.91143        -0.512631     -0.120342     -0.239158
O      15.56476     13.41151     15.97037        -0.206121      0.343968     -0.811179
O       3.96214      1.91303      7.17756        -0.135101     -0.376264      0.064820
O       3.98623     13.31516      7.06052         0.433362      0.458264      0.356120
O       0.16615      2.03008      7.14617        -0.042681     -1.401076     -0.115287
O       0.12606     13.35034      6.95385        -0.381668      0.168511      0.906134
O       3.98539      1.89562     11.66313        -0.145732     -0.152692     -0.670417
O       3.99693     13.45168     11.58099        -0.215905      0.622975     -0.933115
O       0.16787      1.89810     11.50099        -0.546165      0.177376      0.073372
O      15.46232     13.37669     11.57546         0.495738      0.010146     -0.296784
O       3.91109      5.74573      2.51852        -1.279093     -0.298350      0.832315
O       4.01983      5.67387     15.84905        -0.072299      0.238290     -0.571412
O      15.37049      5.79157      2.75982         0.310724     -0.047482      0.176381
O      15.55789      5.76015     15.93262         0.435739      0.382746     -0.162024
O       3.82861      5.73823      7.04960         2.922880      0.170017      0.577932
O       0.17723      5.68995      7.13911        -1.104327     -0.259977      0.029868
O       4.06557      5.75789     11.60078        -1.274920      0.158579     -0.193874
O      15.49979      5.67630     11.42759         0.602948      0.047556      0.050876
O       3.90240      9.59299      2.88129        -0.310898     -0.445477     -0.343966
O       4.04850      9.61590     15.83730        -0.797376      0.287548      0.254573
O      15.39207      9.61033      2.82977         1.209311      0.154695      0.190767
O      15.53786      9.62353     15.78362         1.232479      0.062971      0.151065
O       4.00126      9.42110      7.18865        -0.689654      0.982786     -0.220709
O      15.44737      9.57413      7.08594        -0.156962     -0.188509     -0.021378
O       4.03869      9.50341     11.50616        -0.374795     -0.062313      0.381240
O       0.23056      9.63612     11.49736        -1.388060     -0.175154     -0.113297
O       7.69185      1.93335      2.77859        -0.689244     -0.099339     -0.223562
O       7.91368      1.82920     15.73906        -0.088118      0.623003      0.598517
O       7.74200     13.39528      2.70548        -1.181515     -0.005469      0.422952
O       7.90799     13.49489     15.92210        -0.446752     -0.455483     -0.110738
O       7.76635      1.90446      7.13450        -0.448923      0.063240      0.005919
O       7.81261     13.34991      7.15794        -0.531870      0.199849     -0.158795
O       7.85704      1.94007     11.40771         0.699277     -0.208156      0.372279
O       7.87619     13.35763     11.54347        -0.600467      0.368289      0.037847
O       7.76695      5.72214      2.58238        -0.982167      0.069064      0.779190
O       7.86267      5.70596     15.89721         0.172792      0.195060     -0.001738
O       7.77714      5.65098      7.23202        -0.100469      0.500459     -0.362663
O       7.78949      5.72514     11.43545         0.917027     -0.524786      0.385884
O       7.71871      9.56823      2.74460         0.407392      0.119906      0.021048
O       7.84293      9.68501     15.79727         0.319808     -0.224812      0.409066
O       7.83985      9.58300      7.02431        -1.250738     -0.131692      0.334356
O       7.83671      9.54446     11.41769        -0.652193      0.583030      0.367259
O      11.49489      2.02249      2.70976         0.373549     -0.726689      0.230578
O      11.74592      1.84736     15.98732        -0.265115      0.320460     -0.707166
O      11.63301     13.51728      2.81757        -1.417196     -0.753697     -0.097523
O      11.63269     13.44419     15.79377         1.988623      0.028880      0.214381
O      11.63879      1.77468      7.18528         0.079743      0.703077      0.005904
O      11.63036     13.38824      7.11845        -1.364638      0.442858      0.008042
O      11.64639      1.80964     11.40499         0.925726      0.428109      0.107899
O      11.65214     13.50677     11.50882         0.492912     -0.537497      0.213826
O      11.54056      5.68225      2.74789        -0.150449      0.692431     -0.123527
O      11.80375      5.78060     15.89299        -0.780772     -0.161342     -0.463543
O      11.66914      5.59565      7.10144        -1.217890      0.639013      0.659715
O      11.72421      5.70075     11.41061        -0.589383      0.191495      0.367484
O      11.63778      9.62373      2.63618        -2.082303      0.074408      0.405792
O      11.73816      9.58098     15.79872        -0.149265      0.046304      0.002269
O      11.66593      9.57417      7.14446        -0.894959     -0.517937      0.271941
O      11.65107      9.62259     11.50128         1.897266     -0.894927      0.177022
O       1.89145      3.87015      2.82383         0.329391     -0.546268     -0.319958
O       1.98469      3.85418     15.85381         0.527683     -0.316381      0.089508
O       2.07333      0.03626      2.87921        -0.570939     -0.154096     -0.212787
O       2.11794      0.01369     15.72286         0.035145      0.235866      0.623270
O      13.47925      3.89693      2.71373         0.264015     -0.830264      0.219630
O      13.76201      3.85743     15.86053        -0.647416     -0.893686      0.039890
O      13.46984     15.35266      2.72998         0.226606      0.826800      0.210257
O      13.73066     15.29847     15.94559        -0.926549     -0.387311     -0.656329
O       2.14956      3.85295      7.13613        -0.465593     -0.815014      0.297897
O       2.12218     15.28793      7.09663        -0.411769      0.800004     -0.050789
O      13.59893      3.70560      7.16259        -0.278583      1.348624      0.341299
O      13.51254     15.23803      7.01602         0.881495      1.423786      0.976971
O       2.12953      3.87347     11.44084         0.077744     -0.740855      0.047762
O       2.03342     15.29890     11.48321         0.061551      0.205797      0.064438
O      13.55768      3.80314     11.48102         0.085767     -0.970425     -0.012906
O      13.66287     15.35123     11.56008        -0.274882      0.294974     -0.023449
O       1.93794      7.69004      2.72636         0.187453     -0.044410     -0.012265
O       2.17997      7.69665     15.80958        -0.210128     -0.115631      0.246056
O      13.51783      7.76087      2.71637        -0.173153     -1.524579      0.557290
O      13.69698      7.71087     15.78029         0.028675     -0.684404      0.453115
O       2.09121      7.62107      7.13204        -0.742386      0.692738      0.143125
O      13.60309      7.55778      7.06570        -0.316379      0.931123      0.455826
O       1.98375      7.61860     11.53112         1.338021     -0.128706     -0.256807
O      13.68393      7.64276     11.38470        -0.307883      0.704622     -0.098551
O       2.02772     11.54872      2.86678        -0.206876     -0.589393     -0.354305
O       2.10142     11.59756     15.80030         0.182579     -0.646014     -0.065906
O      13.48256     11.51809      2.84997         0.188729      0.822828     -0.056759
O      13.65488     11.43839     15.91541        -0.369442      1.614961     -0.491623
O       2.00789     11.47773      7.05432         0.407332     -0.912157      0.271383
O      13.42868     11.45516      7.06338         0.802537      0.173739      0.386900
O       2.12835     11.43880     11.50752        -0.038100      0.780368      0.441249
O      13.56812     11.43890     11.42439         0.196714      0.714412      0.221774
O       5.78680      3.85395      2.73074         0.234881     -0.796699      0.162770
O       5.98851      3.80987     15.79732        -0.114243     -0.229697      0.464219
O       5.80004     15.26140      2.76829        -0.053083      1.619085     -0.006858
O       5.98328      0.03633     15.94144        -0.363946      0.099632      0.004145
O       5.78919      3.79866      7.21356         0.174004      0.628852     -0.003037
O       5.88690     15.29588      6.98220        -0.037571      0.986073      0.511746
O       5.88154      3.74413     11.41027         0.050475      1.248692      0.692246
O       5.95234      0.00111     11.56577         0.033772     -0.624581     -0.051525
O       5.79986      7.57188      2.74784         0.271640      0.514281      0.344278
O       5.92550      7.68348     15.81451         0.081496      0.445758     -0.198158
O       5.90882      7.67392      7.22094         0.046311     -0.894269     -0.520465
O       6.00521      7.63586     11.53934        -0.697352      0.300996     -0.136266
O       5.81962     11.42710      2.78641         0.121149      0.994693      0.318998
O       5.96461     11.58933     15.96811        -0.073264      0.464996     -0.660811
O       5.88329     11.47509      7.09608         0.219566     -0.315179     -0.116676
O       5.86620     11.62147     11.33730         0.208734     -1.973772      1.008747
O       9.56987      3.82093      2.60881         0.188332      0.395631      0.542171
O       9.82053      3.87979     15.83750         0.115942     -1.592934      0.025263
O       9.58708      0.07619      2.75382         0.114928     -1.006499      0.033659
O       9.77939     15.32285     15.86325         0.408672      0.700086      0.107780
O       9.82938      3.78532      7.14644        -0.834206      0.173751     -0.197056
O       9.66037     15.31507      7.22112         0.025188      0.132202     -0.279498
O       9.78700      3.81663     11.48299         0.090523     -0.906647      0.093520
O       9.74910     15.32001     11.43820        -0.104026      0.593780      0.261673
O       9.60805      7.72015      2.64543         0.406870     -0.091717      0.199627
O       9.77688      7.69191     15.79666        -0.100416     -0.139815      0.049834
O       9.73570      7.70389      7.18346        -0.059831     -0.769824      0.069887
O       9.77948      7.60066     11.46258         0.010219     -0.076531      0.177796
O       9.62867     11.50703      2.79968         0.173493      0.140746     -0.073680
O       9.89059     11.51684     15.75268        -0.614411      0.372902      0.691836
O       9.76032     11.52938      7.14882        -0.281274     -0.250466     -0.298043
O       9.83975     11.39664     11.48515        -0.424919      2.284087      0.477854
