  # total energy = -7880.96271680 
CRSYTAL
PRIMVEC
    15.3600000000000000    0.0000000000000000    0.0000000000000000
     0.0000000000000000   15.3600000000000000    0.0000000000000000
     0.2400000000000000    0.0000000000000000    17.440000000000000
PRESSURE
0.532212 0.781043 -4.45908 -0.214298 -0.866374 0.026576
PRIMCOORD
320 1
Pb       3.84806      3.82465      4.30970        -0.220192     -0.683481      0.108135
Pb       3.98641      3.82072     17.38407         0.569640     -0.283227      0.317326
Pb       3.81330      0.02602      4.22775        -0.017283     -0.278567      0.420333
Pb       4.23103     15.28734     17.38505        -0.297077      0.140710      0.115760
Pb      15.40732      3.91211      4.36663         0.383068     -0.454783     -0.264034
Pb      15.41211      3.82781     17.38394         0.647368     -0.181456      0.239422
Pb      15.40636     15.16481      4.27634        -0.179976      0.355979     -0.263388
Pb       0.39024      0.11431     17.33170        -0.571598     -0.589129      0.337043
Pb       3.79881      3.79611      8.73258         0.048934      0.269153     -0.020408
Pb       3.96590      0.04071      8.63983        -0.231986     -0.033406      0.248166
Pb      15.38833      3.81839      8.76151        -0.092773      0.550772      0.138800
Pb       0.22612     15.34496      8.66816        -0.312308      0.081240      0.263830
Pb       4.02231      3.69484     13.04425        -0.288353     -0.360445     -0.311726
Pb       3.95782     15.28480     12.89920         0.014332      0.783895      0.039866
Pb      15.46856      3.65808     13.13447        -0.179937      0.507569     -0.201460
Pb      15.47949     15.18508     12.96632        -0.219569      0.452584      0.710617
Pb       3.92594      7.66481      4.30155        -0.232607      0.171224     -0.119978
Pb       4.01610      7.79177      0.05819         0.145567     -0.367248     -0.342571
Pb      15.37753      7.74862      4.31364         0.233289     -0.095255      0.036762
Pb       0.02144      7.58327      0.03180         0.339618     -0.152497     -0.384871
Pb       3.91391      7.77710      8.74205         0.186177     -0.452450     -0.437119
Pb       0.20730      7.69122      8.72694        -0.097806     -0.221377      0.152950
Pb       3.95120      7.66055     13.15302        -0.106587      0.180902      0.171206
Pb       0.24205      7.73681     13.10151        -0.107798     -0.027527     -0.143979
Pb       3.87531     11.53813      4.30003        -0.286546     -0.201948     -0.085654
Pb       4.04458     11.45230     17.35641         0.371279     -0.159580      0.424809
Pb      15.28606     11.38795      4.25251         0.168940      0.290362     -0.130994
Pb      15.56411     11.45538     17.41598         0.202895      0.361828     -0.059277
Pb       3.88321     11.48329      8.60457         0.218995      0.598390      0.525234
Pb       0.20315     11.58488      8.68216        -0.290772     -0.130165     -0.208701
Pb       3.99070     11.47785     13.16228        -0.430748      0.263306     -0.003662
Pb      15.42014     11.41020     13.05006         0.035676      0.721668      0.188489
Pb       7.70271      3.80940      4.43053         0.073054     -0.324817      0.087445
Pb       7.78942      3.80195     17.43083        -0.054131     -0.091747     -0.446807
Pb       7.60180     15.27422      4.42671         0.578474      0.237480     -0.264917
Pb       7.63545     15.33944      0.00516         0.531288      0.154447      0.094916
Pb       7.81754      3.74945      8.71951         0.016051      0.449678     -0.494047
Pb       7.75887     15.34496      8.62289         0.222259     -0.105165      0.298516
Pb       7.83380      3.96514     12.85614        -0.518153     -0.328453      0.862119
Pb       7.80533      0.04340     12.98822        -0.330566     -0.229266     -0.278915
Pb       7.77134      7.54781      4.28836        -0.254617      0.414717      0.705785
Pb       7.73074      7.73663      0.00734        -0.420576      0.110504     -0.665969
Pb       7.79860      7.69666      8.71900        -0.273046     -0.198431     -0.276716
Pb       7.84959      7.72527     13.10068         0.106830     -0.062697     -0.343575
Pb       7.89039     11.45738      4.36450         0.109667      0.127549      0.271782
Pb       7.58985     11.64960      0.02779         0.160126     -0.725689     -0.171424
Pb       7.72265     11.45929      8.60860        -0.150870     -0.123117      0.288661
Pb       7.79376     11.63363     13.03551         0.408608     -0.260013     -0.502286
Pb      11.60134      3.92498      4.43500        -0.230230     -0.556679     -0.084510
Pb      11.68921      3.93879     17.41245        -0.498428     -0.490515     -0.419430
Pb      11.54866      0.06957      4.45699         0.064871     -0.348873     -0.318061
Pb      11.54760      0.15424      0.02573        -0.487839     -0.165237     -0.454819
Pb      11.74729      3.84111      8.74791        -0.165342      0.090273     -0.387026
Pb      11.61349      0.02700      8.65447         0.047188     -0.149789     -0.227739
Pb      11.60915      3.77685     12.98270         0.440399     -0.098183      0.317159
Pb      11.56516     15.21609     13.01998         0.868783      0.394929      0.615219
Pb      11.52547      7.57856      4.35572         0.013389     -0.003417     -0.049948
Pb      11.63211      7.60804     17.33673        -0.188034      0.457556     -0.161927
Pb      11.61532      7.64868      8.69337        -0.237137     -0.315757      0.361572
Pb      11.84439      7.57797     13.03634        -0.847966      0.505529      0.231168
Pb      11.67476     11.40526      4.22623        -0.196108      0.547926      0.372794
Pb      11.67247     11.62472     17.43434        -0.232960     -0.066113     -0.158979
Pb      11.56299     11.56674      8.74117         0.406651      0.045046     -0.249382
Pb      11.60021     11.45582     13.05848         0.082320      0.000206     -0.507993
Ti       1.95971      1.78389      2.22954        -0.336200      1.227541      0.362898
Ti       2.16971      1.87422     15.42741         0.567875     -0.436846     -1.559824
Ti       1.96844     13.36687      2.13402        -0.909323      0.123641     -0.053207
Ti       2.11802     13.43099     15.44923         0.313367     -1.029298     -1.317814
Ti      13.50153      1.87830      2.34965         0.325532     -0.297695      0.074924
Ti      13.63827      1.88770     15.30554        -0.471480     -0.171503     -1.593175
Ti      13.42614     13.46708      2.16373         0.574164     -0.526309      0.568725
Ti      13.62681     13.46213     15.52189         0.013504     -0.016366     -1.841135
Ti       1.92518      1.99229      6.63916         0.042278     -0.608181     -1.802561
Ti       2.02392     13.53893      6.67196        -0.210901     -0.726960     -0.248936
Ti      13.49193      1.92604      6.62654        -0.116621      0.121438      0.255319
Ti      13.53246     13.48156      6.67364        -0.814410     -0.615997      0.236217
Ti       1.97824      1.97657     10.99962         1.045050     -0.510694     -0.344405
Ti       2.08947     13.44063     11.07667        -0.729565      0.350413     -2.599359
Ti      13.51022      1.88366     11.00998         0.422493      0.322417     -0.572706
Ti      13.63373     13.39969     10.97070        -0.527517     -0.007523     -0.687017
Ti       1.96006      5.73672      2.34062        -0.503306     -0.354376     -0.901334
Ti       2.18092      5.69425     15.40155        -0.454523      0.544028     -0.777987
Ti      13.47941      5.74384      2.29503         0.351148     -0.418860     -0.246913
Ti      13.65468      5.74888     15.44090        -0.487270      0.013503     -2.253350
Ti       1.96142      5.73854      6.69215         0.907003      0.305100      0.997191
Ti      13.58232      5.88012      6.69231        -0.488152     -1.906919     -0.769790
Ti       2.03248      5.76142     11.20161        -1.509655     -0.597373     -2.113640
Ti      13.60153      5.73077     11.21501         0.946757     -1.165356     -1.794943
Ti       1.96777      9.58315      2.27433         0.351986     -0.131426     -0.882693
Ti       2.11809      9.54472     15.55857        -0.132583      0.272311     -1.769144
Ti      13.40816      9.46118      2.14153         0.099725      1.622531      1.507757
Ti      13.62716      9.61576     15.47804        -0.399359     -0.312038      0.970577
Ti       2.00542      9.62348      6.65550        -1.128680     -0.145536     -1.107152
Ti      13.44383      9.59378      6.79049         1.005375      0.879000      0.090318
Ti       2.04496      9.63601     11.00704        -0.214375     -0.190023     -1.014543
Ti      13.59024      9.55282     10.95398        -0.918829      0.621538     -0.687214
Ti       5.84433      1.85161      2.39429        -0.186867      0.384095     -0.801725
Ti       5.94929      1.75594     15.30604         0.120884      1.435360     -0.624739
Ti       5.79020     13.38578      2.36822         0.077081      0.039008     -1.604337
Ti       5.97753     13.34223     15.28881        -0.627554     -0.544088     -0.392493
Ti       5.83225      1.89560      6.64176         0.089292      0.402732     -0.226062
Ti       5.79919     13.40172      6.64740        -0.109098      0.377320      0.080031
Ti       5.95199      1.97843     10.89568        -1.465511     -2.052231      0.091595
Ti       5.86449     13.38947     10.97579         0.582759      0.786007     -0.406937
Ti       5.80211      5.74442      2.44343        -0.388519     -0.338103     -1.302875
Ti       5.86693      5.66806     15.37310         1.285556      0.679769     -0.805254
Ti       5.77578      5.70062      6.61138         0.289242      0.278120     -0.522036
Ti       5.76050      5.82482     10.96697         1.003481     -0.128560      0.279426
Ti       5.86659      9.68605      2.38124        -0.628275     -1.166088     -1.488801
Ti       5.96687      9.59824     15.26815         0.899026     -0.928689      0.958938
Ti       5.74814      9.60239      6.53484         1.536822     -0.571705     -0.621005
Ti       5.79695      9.61086     11.11577         0.638246      0.279749     -1.845735
Ti       9.65211      1.85836      2.46350         0.020953     -0.186653     -0.584209
Ti       9.75749      1.87887     15.40072         0.306330      0.739230     -1.414244
Ti       9.57581     13.41625      2.34018         1.057180     -0.123457     -1.630490
Ti       9.74827     13.41273     15.39880         1.298782      0.298525      0.736197
Ti       9.63003      1.87474      6.67279         0.968433      0.018224     -1.412639
Ti       9.66066     13.38538      6.68833         1.748286     -0.253973     -1.436728
Ti       9.69944      1.90363     11.04935         0.924038      0.026051     -1.561779
Ti       9.81097     13.49141     10.98639        -0.988181     -1.458643     -0.942843
Ti       9.58892      5.63590      2.39190         0.373139     -0.359322     -0.260772
Ti       9.72143      5.72387     15.29440         0.049729      0.112852      0.012428
Ti       9.62512      5.70454      6.76990         0.380755     -0.436957     -1.016372
Ti       9.74797      5.78473     11.05832        -0.442774      0.656576     -2.032021
Ti       9.63123      9.51796      2.41682         0.429267      0.384003     -2.320829
Ti       9.79482      9.62471     15.36623        -0.302598     -0.541361     -0.430931
Ti       9.62351      9.55036      6.71782         0.526815      0.255605     -1.194311
Ti       9.66871      9.60484     11.04429         0.595498     -0.167051      0.351167
O       1.93988      1.84747      0.43431         0.098595     -0.042711      0.026043
O       2.31457      1.78736     13.59831        -0.282256      0.455901      1.386582
O       1.80685     13.32175      0.34832         0.791504      0.195575      0.390372
O       2.16994     13.35288     13.60721         0.092112      0.119253      0.103740
O      13.44441      1.86918      0.54895        -0.006766      0.297619      0.292892
O      13.60149      1.90032     13.46838         0.047718      0.001848      1.526342
O      13.46793     13.32047      0.39373        -0.068633      0.589266     -0.618916
O      13.70131     13.48692     13.68279        -0.248199     -0.431771      0.696621
O       1.87707      1.98872      4.77524         0.439782     -0.341954      1.972028
O       1.88927     13.51942      4.90160         0.335301     -0.001439      0.151851
O      13.38433      1.78760      4.85391         0.455820      0.338626      0.388879
O      13.49858     13.49239      4.86285         0.484041     -0.342400      1.161459
O       2.03808      1.97660      9.16969        -0.241286     -0.107659      0.805636
O       2.00051     13.53571      9.17795         0.192234      0.069494      1.228097
O      13.53048      2.03449      9.13957        -0.219161     -0.427554      1.632896
O      13.51493     13.40878      9.18436         0.260143      0.184499      0.943195
O       1.87757      5.89484      0.55525         0.169394     -0.750318      0.398104
O       2.20282      5.64463     13.56356        -0.101000      0.673702      1.344447
O      13.48880      5.70222      0.44860        -0.146456     -0.278920      0.949621
O      13.52721      5.73690     13.51644         0.173237     -0.010042      1.677732
O       1.89816      5.68288      4.97530         0.108552      0.048347     -1.493731
O      13.55611      5.88084      4.83475        -0.237366      0.107711      1.432318
O       1.91858      5.61727      9.37157         0.241588      0.303883      0.473184
O      13.65968      5.70878      9.37574        -0.110049     -0.119023      0.607964
O       1.94094      9.60169      0.43061         0.145798     -0.345889      0.941022
O       2.19530      9.49861     13.65337        -0.615712      0.237092      1.187464
O      13.28058      9.53418      0.43569         0.318023     -0.137071     -0.786146
O      13.71342      9.61507     13.74261        -0.064367     -0.010790     -1.248431
O       1.97810      9.49801      4.82928         0.026058      0.407841      0.793792
O      13.59867      9.67439      5.00073        -0.203752     -0.544515      0.047695
O       2.04033      9.51959      9.16916         0.430048      0.299101      0.847336
O      13.59299      9.54525      9.16495        -0.017878     -0.123188      1.293130
O       5.87969      1.76353      0.55986        -0.184951      0.089396      1.283949
O       5.96419      1.83975     13.47678        -0.169833     -0.132767      1.605632
O       5.85177     13.37744      0.51866        -0.028418      0.200419      0.666724
O       5.92059     13.29584     13.49321        -0.093145      0.286999      0.570592
O       5.93888      1.76316      4.83586        -0.327780     -0.072123      0.537068
O       5.74634     13.50033      4.87241         0.256634     -0.392248      0.145016
O       5.91071      1.95305      9.10497         0.168609      0.040147      0.355411
O       5.77721     13.26756      9.19694         0.417132      0.277276      0.275458
O       5.80159      5.80667      0.61138        -0.110572     -0.437601      1.356054
O       5.83595      5.72684     13.56575        -0.061287     -0.086991      0.410473
O       5.76662      5.79669      4.76031         0.149984     -0.186985      1.186269
O       5.84982      5.75030      9.24100        -0.104558      0.057331     -0.444806
O       5.77680      9.66045      0.47964         0.408257     -0.575158      1.686678
O       5.84352      9.53292     13.47686         0.108144      0.125413      0.188014
O       5.80271      9.68989      4.66774        -0.212675     -0.243615      1.881864
O       5.72533      9.68477      9.18781         0.163434     -0.113679      2.166591
O       9.57137      1.89378      0.64119         0.348452      0.021055      0.339736
O       9.75951      1.81779     13.57870        -0.290779      0.105877      0.813330
O       9.57450     13.47433      0.40756        -0.201609     -0.219192      2.020245
O       9.91291     13.40756     13.63834        -0.528125     -0.053529     -0.374426
O       9.70747      1.74942      4.82276        -0.369944      0.427008      1.166609
O       9.71236     13.22323      4.85669        -0.208214      0.381089      0.902309
O       9.78662      1.93692      9.21205        -0.605837     -0.207856      1.308890
O       9.83867     13.52892      9.17786        -0.251870     -0.250304      0.935192
O       9.56487      5.56629      0.60112         0.149210      0.044610      0.468647
O       9.78505      5.80997     13.50785        -0.176182     -0.232501     -0.051444
O       9.70627      5.61898      4.85783         0.027128      0.713020      1.275304
O       9.68831      5.78602      9.13324        -0.073402     -0.000965      1.612083
O       9.50267      9.39482      0.55317         0.516982      0.436982      1.431807
O       9.80751      9.54214     13.56513        -0.056177      0.323327      0.851754
O       9.58527      9.59093      4.89094         0.310656     -0.150110      0.325991
O       9.61482      9.47199      9.27788        -0.063110      0.243788     -0.322868
O       3.88704      1.82336      2.71865         0.261133      0.435937     -0.202544
O       4.15956      1.86570     15.93249        -0.488875     -0.137554     -0.290449
O       3.94241     13.32096      2.69427        -1.174542     -0.105716     -0.104729
O       4.14339     13.03552     15.73535        -0.079474      1.445725     -0.341357
O       0.08563      1.77132      2.61434        -0.442877     -0.232397      0.001611
O       0.26778      1.82722     15.71247         0.635364      0.035233      0.013254
O       0.09870     13.52372      2.52122        -0.374830     -0.194648      0.411065
O       0.27306     13.48330     15.65260        -0.345706     -0.091112      0.625430
O       3.97751      1.94576      6.98454        -0.631314     -0.235318      0.031309
O       3.93689     13.52412      7.02479        -0.002592      0.092176     -0.017150
O      15.38831      1.81289      6.94684         0.385773      0.453467      0.093007
O       0.14062     13.48756      7.20072        -1.106119     -0.144232     -0.804735
O       3.98139      1.87197     11.28649         0.413079     -0.257523      0.101506
O       3.91536     13.42619     11.31688         1.486979      0.008507      0.430208
O      15.47221      2.04888     11.45424         0.345743     -0.868251     -0.688367
O       0.19706     13.44748     11.43201        -1.073072     -0.169701     -0.020219
O       3.83384      5.57973      2.84932         0.621615      1.008341     -0.712442
O       4.02376      5.73300     15.88002        -0.237489     -0.000358     -0.082980
O      15.38806      5.87055      2.79260        -0.082056     -0.163958     -0.478063
O       0.22457      5.71244     15.88142         0.841461      0.305934     -0.453327
O       3.94382      5.62773      7.06108        -0.194615      0.287083     -0.021874
O       0.16576      5.78071      7.15052        -1.392900     -0.097964     -0.221321
O       3.86762      5.87148     11.26303         2.208111     -0.035257      0.623421
O      15.48899      5.48881     11.58974         0.054890      1.144555      0.130988
O       3.89347      9.61598      2.64398        -0.204698     -0.016149      0.159394
O       4.13072      9.59834     15.75060        -0.593905      0.039088      0.189288
O       0.07552      9.50336      2.59573        -0.831718     -0.226991      0.022670
O      15.54164      9.49373     15.90793         0.399780      0.100845     -0.205949
O       3.97119      9.74785      6.98799        -0.983127     -0.853894     -0.144009
O       0.12872      9.62976      7.11938         0.253048     -0.056233     -0.245253
O       3.90026      9.42482     11.54446         0.404105      0.869130     -0.714685
O      15.51222      9.65480     11.49052        -0.352641     -0.579078     -0.122430
O       7.73985      1.85298      2.80990        -0.448647     -0.355760     -0.185580
O       7.81123      1.82844     15.86874         0.261296      0.045024     -0.525806
O       7.70771     13.33951      2.67564         0.341189     -0.112871      0.252215
O       7.90117     13.38086     15.62107        -0.705118      0.514324      0.431830
O       7.77921      1.88796      7.13752        -0.108494     -0.101104     -0.153641
O       7.84730     13.29798      7.00308        -1.555829      0.265057      0.300407
O       7.85128      1.83772     11.41216        -0.295305      0.309134     -0.230452
O       7.87145     13.34852     11.34653        -0.171930      0.042209      0.090562
O       7.73496      5.61522      2.81643        -0.531218      0.162743     -0.260306
O       7.87188      5.77974     15.63119        -0.191694     -0.526570      0.302616
O       7.74942      5.70725      7.00356        -0.127211      0.683528      0.150975
O       7.78227      5.71345     11.33016        -0.082483      0.377493      0.278497
O       7.82043      9.66330      2.77456        -1.306672     -0.311176     -0.104840
O       7.88474      9.44878     15.68493         0.194848     -0.002078     -0.105895
O       7.72159      9.59202      7.01926        -0.490875      0.433189      0.114797
O       7.79414      9.68220     11.48311        -0.500678     -0.574214     -0.130097
O      11.62554      1.91323      2.83286        -0.395378     -0.066220     -0.610637
O      11.77866      1.92990     15.66587        -0.256487      0.326030      0.663523
O      11.63034     13.34619      2.49886        -1.114305      0.123949      0.185542
O      11.67094     13.34708     15.73101         1.092132      0.384376      0.473127
O      11.50193      2.04656      7.02304         1.296774     -0.634396      0.114640
O      11.56784     13.47192      7.09902         0.888294     -0.262268     -0.079937
O      11.61919      1.87018     11.41257         0.047101      0.230160     -0.155479
O      11.69905     13.37969     11.46193         0.011769      0.030474     -0.226012
O      11.58750      5.65800      2.70334        -0.237980      0.154395     -0.063485
O      11.69641      5.61773     15.77065         0.688865      0.186261      0.225742
O      11.63053      5.77917      7.12918         0.276049      0.061532     -0.454462
O      11.63627      5.66416     11.36262        -0.093640      0.117311      0.326456
O      11.54260      9.44259      2.78897         0.321497      0.438763     -0.253549
O      11.70761      9.55876     15.84134        -0.031849      0.141308     -0.240512
O      11.60721      9.47511      7.08801        -0.047193     -0.289982     -0.081761
O      11.65001      9.61122     11.42593         1.348520     -0.164364     -0.155101
O       1.87585      3.74358      2.67926         0.205589      0.716795     -0.130429
O       2.29336      3.74507     15.70958        -0.522534      0.881058      0.223811
O       2.12029     15.24533      2.46105        -0.109805      0.352133      0.493917
O       2.39075     15.27219     15.75007        -0.297268      0.507413      0.355731
O      13.63549      3.86229      2.79495        -0.475753     -0.206572     -0.705908
O      13.88694      3.78895     15.65519        -0.898648     -0.024507      0.398461
O      13.43616     15.29689      2.70020         0.093207      0.637172     -0.301947
O      13.69949      0.02630     15.70506        -0.310505     -0.418050      0.747965
O       1.98146      3.81826      7.15404        -0.096861     -0.215334     -0.410733
O       1.96742      0.07431      7.04936         0.571328      0.044117      0.050390
O      13.57563      3.86256      7.03421        -0.048319      0.074741     -0.248370
O      13.42000     15.33450      7.06938         0.307151      0.393713     -0.218577
O       2.17521      3.81558     11.49713        -0.006828     -0.614134      0.048784
O       2.03391      0.02333     11.40246        -0.050914      0.158330     -0.016194
O      13.58913      3.77941     11.46525        -0.870278     -0.433875      0.052365
O      13.55074     15.33344     11.36988         0.432658      0.059956     -0.174552
O       2.07661      7.60829      2.66859        -0.079593      0.879807      0.306468
O       2.18576      7.66426     15.77428        -0.156647     -0.788827      0.032504
O      13.36307      7.69244      2.63960         0.606873     -1.278235      0.088385
O      13.61913      7.58278     15.68731        -0.009103      0.379325      0.436087
O       2.04015      7.68416      7.06692         0.552852      0.128194      0.011146
O      13.61217      7.61915      7.19864        -0.062269      1.060114     -0.307475
O       1.89278      7.70891     11.32543        -0.047938     -0.450012      0.635456
O      13.59621      7.63376     11.41321         0.420676      0.907666      0.252087
O       1.83313     11.51739      2.60280         0.718878     -0.800506      0.276799
O       2.14544     11.47558     15.81169        -0.579450     -0.742414      0.009777
O      13.52225     11.48190      2.68631         0.118858     -0.603334     -0.410908
O      13.69967     11.49941     15.82515         0.006512      0.034236     -0.013999
O       2.04775     11.57385      6.93949        -0.091241     -0.354503      0.288990
O      13.41247     11.48349      7.19810         0.636714      0.576237     -0.606294
O       2.02185     11.54585     11.09979         0.331218     -1.057172      0.970408
O      13.66870     11.51349     11.30656        -0.155559     -0.502362      0.484959
O       5.78523      3.75890      2.77452         0.263646      0.088887     -0.244777
O       5.87536      3.76610     15.79110         0.526200      0.223574      0.000519
O       5.76984     15.23555      2.76819         0.383255      1.019135     -0.146540
O       5.84672     15.21257     15.67187         0.517547      0.344664     -0.036214
O       5.95796      3.81825      6.85080        -0.126206     -0.130303      0.246257
O       5.94122     15.35935      7.18572        -0.166123     -0.754689     -0.713478
O       5.85695      3.72540     11.30354         0.214786      2.451291      0.340176
O       6.02140     15.31856     11.27825        -0.442578     -0.373420      0.075391
O       5.86680      7.68778      2.75976        -0.181081     -0.564792     -0.312046
O       5.95621      7.57805     15.78291        -0.353874      0.739383     -0.133000
O       5.76567      7.69239      7.03143        -0.037321      0.261272     -0.415069
O       5.94396      7.71898     11.34313        -0.141070     -0.419518      0.048630
O       5.81974     11.46896      2.59281         0.162805      0.925008      0.672771
O       6.13595     11.42453     15.73941         0.012174      0.153386     -0.320719
O       5.77894     11.55799      6.99393         0.453648     -0.585756     -0.155126
O       5.88009     11.53734     11.50977        -0.469061     -0.824734     -0.246811
O       9.61837      3.69242      2.88525         0.272758      1.326567     -0.360850
O       9.79033      3.83622     15.66645        -0.259828     -0.590541      0.605574
O       9.61840     15.23728      2.75961         0.307942      0.376173     -0.053833
O       9.88154      0.10139     15.86719        -0.295911     -1.501239     -0.120120
O       9.61794      3.79942      6.99409        -0.066275      0.654672      0.217378
O       9.69495     15.31895      6.94865        -0.249082     -0.003667      0.406689
O       9.63785      3.82416     11.36594         0.584533     -0.273638      0.076238
O       9.74030     15.29745     11.47602         0.007976      0.590696     -0.264027
O       9.53123      7.57710      2.68591         0.510117     -0.385904      0.311310
O       9.84300      7.64519     15.78124         0.125472     -0.355546      0.047158
O       9.65631      7.70973      7.09877        -0.084524     -1.164174     -0.046059
O       9.81765      7.66382     11.41413        -0.600027     -0.420055      0.115045
O       9.78284     11.48105      2.70974        -0.549377     -0.226459     -0.186512
O       9.78079     11.51582     15.86106        -0.075784     -0.535489     -0.472214
O       9.86669     11.39588      7.12553        -0.937799      0.833003      0.086989
O       9.77378     11.46913     11.39293         0.204187      0.962392      0.158954
