  # total energy = -7880.09469611 
CRSYTAL
PRIMVEC
    15.3600000000000000    0.0000000000000000    0.0000000000000000
     0.0000000000000000   15.3600000000000000    0.0000000000000000
     0.2400000000000000    0.0000000000000000    17.440000000000000
PRESSURE
3.58512 3.34717 8.28745 -0.125154 -0.770677 0.006176
PRIMCOORD
320 1
Pb       3.95649      3.89755      4.26084        -0.453246     -0.165818      0.712847
Pb       4.10631      3.80401     17.35646        -0.396621     -0.071382      0.098264
Pb       4.01669     15.24073      4.36275        -0.698275      0.716675      0.229832
Pb       3.99068     15.35561     17.43917        -0.248814     -0.040067      0.369240
Pb      15.33891      3.81486      4.20909         0.420529     -0.078700      0.512150
Pb       0.07009      3.83013      0.00615        -0.424229     -0.300983      0.156072
Pb      15.36497      0.08535      4.37687         0.107907     -0.071118     -0.162081
Pb      15.17640     15.28820      0.04177         0.121498      0.134061     -0.245546
Pb       4.09306      3.64986      8.57133        -0.425587      0.928379      0.266422
Pb       3.86485      0.00573      8.89757         0.405233     -0.326330     -0.987419
Pb      15.37871      3.83324      8.53576         0.785696     -0.031373      0.912605
Pb      15.46543     15.35432      8.66284         0.011361     -0.377916      0.381401
Pb       3.89827      3.78513     13.01066         0.865729      0.540584      0.624255
Pb       4.08375      0.00288     13.08329         0.077256      0.111744      0.264205
Pb       0.19778      3.83382     13.03133        -0.234288     -0.296069      0.174994
Pb       0.23784      0.17978     12.96612        -0.321967     -0.650188      0.523269
Pb       3.79247      7.67973      4.27162         0.177366     -0.123550      0.342768
Pb       3.96004      7.64327     17.29677        -0.105253      0.303790      0.981922
Pb      15.35084      7.66438      4.27622         1.013133     -0.011994      0.964270
Pb      15.55211      7.78782     17.32279         0.278979     -0.068200      0.313339
Pb       3.86716      7.68650      8.69361         0.513220     -0.415683      0.041254
Pb      15.41152      7.70102      8.71253         0.145329     -0.350668     -0.465962
Pb       4.03508      7.80360     12.78379         0.177415     -1.029545      1.028058
Pb      15.32041      7.67253     13.10137         0.493910     -0.114338     -0.171415
Pb       3.77995     11.49146      4.33634         0.603000     -0.104170      0.144963
Pb       3.89272     11.57046      0.15250        -0.546426     -0.022782     -0.436984
Pb       0.21384     11.56641      4.27528        -0.860673     -0.475335      1.020194
Pb       0.28653     11.43294     17.37709        -0.427022      0.116457      0.243182
Pb       3.83653     11.53270      8.74650         0.844185     -0.190455     -0.461762
Pb      15.44801     11.39791      8.61644         0.009191      0.477356      0.546536
Pb       3.97719     11.47168     13.07185         0.656575      0.061779     -0.159389
Pb       0.29354     11.53488     12.95008        -0.793403     -0.039096      0.272059
Pb       7.66911      3.80781      4.18318         0.161808      0.832947      0.897475
Pb       8.02409      3.98675     17.42169        -0.396878     -0.849299     -0.036098
Pb       7.70965      0.11580      4.27934         0.341492     -0.708981      0.360227
Pb       7.82178     15.24249     17.23732         0.297993      0.157351      1.368560
Pb       7.74171      3.83121      8.62581         0.129792     -0.210417      0.215865
Pb       7.88028      0.03561      8.68106        -0.883006     -0.589150     -0.219523
Pb       7.85064      3.60788     13.09800         0.042348      0.190858     -0.373827
Pb       7.78908     15.31581     13.05212         0.064077      0.190860     -0.473722
Pb       7.71764      7.79136      4.17612         0.140217     -0.681653      0.500929
Pb       7.59419      7.61524      0.00047         0.386134      0.074288     -0.080269
Pb       7.87309      7.65491      8.75933        -0.515187      0.106084     -0.127807
Pb       7.85037      7.60965     13.06505        -0.176054      0.185635     -0.166480
Pb       7.58448     11.50114      4.23478         0.650927      0.102748      0.307463
Pb       7.82259     11.42557     17.39598         0.884576      0.740428      0.343127
Pb       7.82523     11.57608      8.76196        -0.489155     -0.119309     -0.494490
Pb       7.85532     11.45613     13.01488        -0.295844      0.171668      0.018535
Pb      11.55011      3.82744      4.18674        -0.096455      0.046961      0.856680
Pb      11.75066      3.85342     17.36505         0.096640     -0.531973      0.214889
Pb      11.54640     15.33474      4.35409        -0.289287     -0.095276     -0.028151
Pb      11.81989     15.17447     17.21903        -0.353348      0.586230      0.905035
Pb      11.55505      3.80177      8.60931         0.079832      0.012642      0.983514
Pb      11.49944     15.28970      8.74414         0.846863     -0.172512     -0.383899
Pb      11.73587      3.93639     13.11764        -0.353738     -0.560959     -0.361416
Pb      11.72286     15.34840     13.02911         0.109252      0.161058      0.210313
Pb      11.55537      7.68318      4.45770        -0.367826      0.178757     -0.388887
Pb      11.83511      7.67853     17.36892        -0.330843     -0.009544     -0.165680
Pb      11.56263      7.59372      8.52661         0.334715      0.740004      0.724337
Pb      11.64858      7.55306     13.12956        -0.145696      0.551831     -0.180778
Pb      11.47622     11.52817      4.22140        -0.286870     -0.167275      0.617634
Pb      11.72232     11.39613     17.41327        -0.022170      0.556953     -0.338293
Pb      11.65449     11.51945      8.57912        -0.081316     -0.238418      0.178941
Pb      11.70987     11.63549     12.96319         0.063829     -0.678529      0.395508
Ti       2.00016      1.87962      2.40417        -0.612192      0.128278      1.202219
Ti       2.02644      1.81875     15.55797         0.226730      0.722540      0.275192
Ti       1.89437     13.47059      2.46037         0.191476      0.445176      0.636867
Ti       2.02147     13.42635     15.44623         0.097044     -0.161347      1.871847
Ti      13.38816      1.87814      2.32468         0.844467     -0.095870      0.146991
Ti      13.59661      1.94894     15.44767         0.481411     -0.817892      1.220699
Ti      13.40188     13.39417      2.46668         0.671926      0.263846      1.431594
Ti      13.63030     13.33714     15.34449        -0.441100      0.113542      1.665580
Ti       2.01312      1.84486      6.67177         1.008535      0.366321      1.270684
Ti       1.99355     13.39961      6.76289         0.583920      0.057828      0.796680
Ti      13.51587      1.86256      6.73329        -0.359852     -0.401724      1.602854
Ti      13.53869     13.41353      6.67994        -0.070527      0.232417      2.077116
Ti       2.18526      1.93014     11.10745        -0.886111     -0.207610      0.408745
Ti       2.21433     13.44912     11.14510        -1.145885      0.292749     -0.067797
Ti      13.63827      1.84055     10.97181        -0.447600      0.493283      3.268660
Ti      13.72211     13.41114     11.09323        -0.337095     -0.021962      1.108381
Ti       1.95926      5.69269      2.32432         0.440690      0.766507      2.260825
Ti       2.08632      5.75193     15.46020        -0.022994     -0.331022      0.329469
Ti      13.48433      5.83717      2.38564        -0.143162     -0.992681      0.739311
Ti      13.65219      5.72754     15.47121         0.015779     -0.255106      0.913908
Ti       2.04295      5.68790      6.76509         0.250918      0.351976      0.723850
Ti      13.51081      5.71756      6.68941         0.744622      0.750333      1.277771
Ti       2.00634      5.78914     11.13403         0.873800     -0.313965      0.007876
Ti      13.53435      5.68080     11.07259        -0.162699     -0.223340     -0.081562
Ti       1.96942      9.58548      2.35054         0.001339     -0.797832      1.001232
Ti       2.19682      9.65572     15.35007        -0.697505     -0.155102      2.724474
Ti      13.49168      9.61080      2.52187         0.087987      0.665417      1.856934
Ti      13.62636      9.59240     15.32583         0.655460      0.595874      2.093342
Ti       2.04139      9.52527      6.71386         0.154806     -0.381956      0.652059
Ti      13.57425      9.61933      6.62864        -0.847281     -0.737583      1.443218
Ti       2.01354      9.57833     11.03443         0.305201     -0.337059     -0.293409
Ti      13.52115      9.51220     11.06341        -0.376405      0.594151      2.560525
Ti       5.78746      1.92657      2.29392        -0.730974     -0.160508      0.870606
Ti       5.96743      1.86765     15.51391        -0.553315      1.136768     -0.750390
Ti       5.76894     13.41729      2.46731        -0.078958      0.136000      0.748561
Ti       5.75540     13.47512     15.40931         1.148492     -1.141007      0.645206
Ti       5.90407      1.79635      6.71102        -0.041462     -0.189516      2.095503
Ti       5.74282     13.32947      6.64436         1.782695     -0.389299      1.976046
Ti       5.88265      1.91307     11.00326         1.532551     -0.760366      1.330008
Ti       5.96152     13.42197     11.00748         0.012213      0.084371      0.387502
Ti       5.74304      5.81579      2.20475         0.392085     -0.599247      2.171844
Ti       5.90760      5.76479     15.46188         0.336827     -0.545545      0.898011
Ti       5.87852      5.79421      6.71288        -0.051233     -0.116904      1.578499
Ti       5.95345      5.72005     11.10709        -1.029842     -0.191839      0.205527
Ti       5.80742      9.53677      2.20687        -0.322095      0.760826      1.713361
Ti       5.98234      9.57949     15.55657        -0.488799      0.405335      0.088605
Ti       5.85230      9.49088      6.68094         0.021375      0.846048      2.171576
Ti       5.92878      9.65775     10.94070         0.519170     -0.660698      1.099143
Ti       9.61608      1.92628      2.35471         0.591366     -0.711207      0.288573
Ti       9.75230      1.86837     15.45724         1.170162      0.260102      1.065589
Ti       9.57867     13.44633      2.24546        -0.718819     -0.085294      0.692715
Ti       9.68131     13.45339     15.44096         1.385047     -1.450216      2.697088
Ti       9.69409      1.85077      6.74881        -0.422496      0.293267      1.301543
Ti       9.63469     13.35042      6.60949        -0.630466      0.082231      0.756326
Ti       9.84321      1.82309     11.02564        -0.652490      0.868431      0.983288
Ti       9.83043     13.41897     11.08054        -0.899763     -0.087420      0.168092
Ti       9.65185      5.75020      2.27708        -0.225683      0.334332      1.686318
Ti       9.78302      5.72687     15.45780         0.599731      0.077926      0.103925
Ti       9.64853      5.70864      6.73989        -0.575912      0.119039      0.967861
Ti       9.70947      5.73876     11.12039         0.706631     -0.815938     -0.153683
Ti       9.66621      9.57758      2.21117        -0.089761      0.083400      1.473850
Ti       9.78964      9.53259     15.45199         0.804083      0.425273      1.506014
Ti       9.56042      9.63865      6.71103         0.906019     -0.923984      1.333772
Ti       9.73074      9.56303     11.03894         0.490417     -0.229031      1.001405
O       1.83894      1.90431      0.71334         0.261158     -0.009097     -2.389150
O       2.02915      1.82721     13.82970         0.055208      0.142987     -1.323559
O       1.85919     13.37917      0.76619         0.011916      0.121154     -1.932547
O       2.12158     13.38540     13.77204         0.188769     -0.008274     -2.807708
O      13.33356      1.87302      0.59258         0.186656     -0.194127     -0.426588
O      13.64802      1.93758     13.74619         0.131646      0.094880     -2.045701
O      13.45713     13.37712      0.78531         0.214199      0.079802     -2.220997
O      13.53764     13.37200     13.65976        -0.007863     -0.077524     -2.039944
O       1.96110      1.85086      4.99136        -0.014130      0.060261     -1.899782
O       1.98264     13.29623      5.05436         0.206655      0.238925     -1.594252
O      13.57927      1.86314      5.04238        -0.263378      0.036694     -1.444551
O      13.32478     13.48637      5.02598         0.511486      0.071259     -2.821033
O       2.19096      1.86259      9.41834         0.100235     -0.129854     -2.085145
O       2.22654     13.46999      9.42644        -0.018930     -0.082526     -1.497863
O      13.50646      1.78557      9.33067         0.238110      0.010851     -3.543993
O      13.59132     13.33162      9.42446         0.080284      0.202862     -2.588467
O       1.82700      5.75166      0.66957         0.037818      0.023660     -3.658537
O       2.08380      5.62273     13.75823        -0.028273      0.277957     -1.316010
O      13.37516      5.86015      0.68810         0.213781     -0.032430     -1.611077
O      13.57571      5.68699     13.76590         0.168877      0.055243     -2.195014
O       2.02297      5.67549      5.07428         0.416677      0.214865     -2.006088
O      13.54887      5.77254      4.99721        -0.323783     -0.278069     -2.150706
O       2.06881      5.78674      9.44887        -0.453485     -0.020410     -1.905724
O      13.46271      5.69757      9.36076         0.356295      0.287388     -1.159582
O       1.84041      9.52854      0.65897        -0.124998      0.292497     -1.637242
O       2.15879      9.75118     13.65318         0.132993     -0.239091     -1.734009
O      13.47500      9.67842      0.85824         0.123858     -0.185118     -2.975742
O      13.60586      9.62706     13.66014         0.200575     -0.282046     -3.294990
O       1.94418      9.43705      4.99967         0.406212      0.445202     -1.453422
O      13.55363      9.51460      4.93479        -0.098923      0.103534     -1.760644
O       2.00225      9.49032      9.28895        -0.045246      0.207426     -0.463906
O      13.55017      9.51205      9.39458         0.209408      0.083682     -2.317367
O       5.67528      1.83104      0.58261         0.041500      0.254746     -0.712206
O       5.99174      1.75602     13.75973         0.045886      0.396921     -0.234729
O       5.52650     13.47648      0.78837         0.266870      0.040103     -2.538508
O       5.89473     13.43999     13.71195        -0.246731     -0.074583     -1.425259
O       5.95662      1.88823      5.03256         0.113635      0.149178     -2.941380
O       5.81111     13.22300      4.91193        -0.309437      0.470805     -1.662242
O       5.91221      1.83762      9.28299        -0.191461      0.182438     -1.368763
O       5.87348     13.27261      9.28026        -0.043278      0.278948     -0.334334
O       5.70742      5.69793      0.52130         0.174007      0.047161     -2.285794
O       5.83614      5.79183     13.78740         0.265050      0.018541     -2.300520
O       5.81617      5.84250      5.02368        -0.006244      0.028387     -2.102227
O       5.82897      5.73735      9.39238         0.832430     -0.289100     -0.054972
O       5.77831      9.59265      0.51140        -0.212838      0.067854     -1.787233
O       6.00083      9.69823     13.83493        -0.077436     -0.263884     -0.788970
O       6.01827      9.43024      4.99193        -0.076862      0.182820     -2.949276
O       5.94341      9.58457      9.25345        -0.099874      0.105343     -1.147450
O       9.60293      2.06053      0.67901         0.221044     -0.253948     -2.117643
O       9.74754      1.83476     13.76080        -0.066206      0.086610     -1.644118
O       9.40198     13.38769      0.54218         0.387848      0.473781     -1.286866
O       9.82792     13.53109     13.78943         0.043430     -0.432864     -3.416993
O       9.52491      1.93173      5.08910         0.105704      0.090251     -3.398087
O       9.60942     13.23046      4.90134         0.068058      0.286298     -1.116353
O       9.80866      1.74135      9.27794        -0.322172     -0.113047     -0.682654
O       9.69738     13.31725      9.35146         0.221898      0.496576     -1.047539
O       9.67852      5.70422      0.57003        -0.015233     -0.024270     -1.893037
O       9.90423      5.73305     13.73749        -0.280984      0.003185     -1.513880
O       9.57507      5.73577      5.06002         0.373853      0.102147     -2.036157
O       9.73700      5.78696      9.38895        -0.075476     -0.397625     -1.282116
O       9.66304      9.55743      0.51855         0.414650     -0.371032     -1.949817
O       9.80336      9.44612     13.75456        -0.458698      0.277259     -1.516140
O       9.58142      9.59100      5.01157        -0.076172     -0.105104     -2.170985
O       9.68917      9.62818      9.34737         0.144882     -0.040643     -1.873374
O       3.87178      1.88732      2.85945         1.112569      0.209107     -0.236209
O       4.01937      1.88679     15.86629        -0.318810      0.007725      0.338802
O       3.80505     13.39514      2.85002         0.634222      0.155991      0.606568
O       3.92438     13.44520     15.88531         0.796296     -0.002044      0.259303
O       0.05525      1.89802      2.78339        -0.552831     -0.032004      0.158441
O      15.49004      1.92432     15.94453         0.808739     -0.452333      0.372323
O      15.37800     13.47541      2.91166        -0.019049     -0.023660     -0.032223
O      15.50312     13.44297     15.74263         0.295665     -0.418435      0.662744
O       4.03009      1.77660      7.04791        -1.048737      0.396820      0.449770
O       3.96146     13.42566      7.13402        -1.145548     -0.288117      0.306168
O       0.13461      1.81889      7.09368        -0.564936      0.444891      0.335402
O       0.15789     13.36969      7.21941        -0.567191      0.240482     -0.137296
O       4.06651      1.81297     11.55710        -0.781704      0.428846      0.100742
O       4.06461     13.58476     11.47982        -0.020965     -0.924215      0.489149
O       0.22226      1.97846     11.44933        -0.295842     -0.141332      0.100588
O       0.24556     13.41109     11.42184         0.583257     -0.267934      0.542834
O       3.89145      5.73405      2.66240         0.095944      0.424373      0.426213
O       4.03103      5.75641     15.84440        -0.920471     -0.165366      0.343491
O       0.10524      5.74024      2.75339        -1.808918     -0.088354      0.226319
O      15.53940      5.84324     15.75908         0.545009     -0.326890      0.697505
O       4.05175      5.75544      7.25337        -1.349336     -0.177890     -0.278975
O       0.12123      5.63863      7.06753        -0.717860      0.072994      0.545910
O       3.97130      5.79411     11.40448         0.694552     -0.043206      0.953939
O      15.46395      5.70816     11.52691        -0.091070     -0.044688      0.224172
O       3.89856      9.58679      2.62455         0.392167     -0.042150      0.517038
O       4.02946      9.64021     15.99230         0.387698     -0.084309     -0.640996
O       0.13359      9.63663      2.86132        -0.998297     -0.435616     -0.119262
O      15.54750      9.64185     15.82280         1.086944     -0.259792     -0.049326
O       3.94401      9.44744      7.00425        -0.658433     -0.069512      0.322478
O       0.12196      9.52392      7.11370        -0.523939      0.308089      0.398453
O       4.03324      9.57563     11.33002        -0.337534      0.080600      0.287725
O       0.17310      9.59589     11.45456        -0.648502      0.053115      0.294580
O       7.72101      2.02736      2.61437        -1.001495     -0.535164      0.602982
O       7.89703      1.90149     15.91341        -0.483814     -0.181693     -0.014835
O       7.66165     13.56477      2.70731         0.363871     -0.678622      0.333490
O       7.84957     13.44272     15.78425        -1.234032      0.146537      0.042686
O       7.81565      1.83774      7.18596        -0.326310      0.296040      0.613032
O       7.71486     13.18453      7.02596         0.747818      0.386375      0.222373
O       7.79875      1.88753     11.46114         0.665825     -0.078757      0.179787
O       7.81993     13.40668     11.42558         0.415086     -0.170144      0.492287
O       7.70273      5.76987      2.56056         0.478422     -0.212791      0.183804
O       7.90614      5.81078     15.76016        -0.701286     -0.329330      0.606803
O       7.76726      5.68979      7.12288         0.646753      0.226867      0.620499
O       7.91555      5.58646     11.64598        -1.860928      0.155668     -0.039856
O       7.75042      9.57095      2.45023        -0.392842     -0.258018      0.885253
O       7.92496      9.48241     16.00139        -0.512170      0.198202     -0.541928
O       7.75497      9.50174      7.15580         0.290968      0.660071      0.213310
O       7.85665      9.67342     11.44905        -0.520586     -0.070783      0.484401
O      11.54170      1.85919      2.86821        -0.032090      0.195661     -0.066331
O      11.76574      1.89140     15.82429        -1.389635      0.186001      0.320726
O      11.48492     13.41207      2.67946         0.419574     -0.028458      0.454033
O      11.71031     13.28457     15.88880         0.350020      0.313429     -0.132702
O      11.57377      1.80089      7.10041         1.022613     -0.152860      0.110880
O      11.64336     13.45049      6.99850        -0.884206     -0.405018      0.845688
O      11.72132      1.65331     11.34290        -0.343952      0.380233      0.398046
O      11.70696     13.53304     11.36061        -0.216737     -0.154927      0.751381
O      11.58838      5.70427      2.76362        -0.011394      0.202246      0.325329
O      11.76640      5.71486     15.72766        -0.109962      0.036648      1.054941
O      11.62953      5.69124      7.13417        -0.456738      0.222863     -0.319711
O      11.62639      5.75814     11.52651         0.297120      0.118135      0.466345
O      11.53435      9.59476      2.78399         0.191371      0.221866      0.278991
O      11.81849      9.57384     15.74324        -1.847372     -0.033815      0.895786
O      11.67719      9.60862      7.00053        -0.313358     -0.180819      0.390461
O      11.63126      9.40691     11.44494         0.205349      0.551818      0.243314
O       2.01767      3.84088      2.73727        -0.166841     -0.601061      0.446160
O       2.05402      3.78543     15.86116         0.229783      0.780346      0.431010
O       1.99050      0.00337      2.77040         0.001496     -0.281909      0.532441
O       2.02587     15.31943     15.96592         0.148290     -0.167461      0.143043
O      13.43588      3.75965      2.71179         0.329715      0.938650      0.249591
O      13.70244      3.79319     15.86629        -0.101934      1.467078      0.328967
O      13.48040      0.00845      2.85703        -0.188337     -0.365293     -0.010592
O      13.63815     15.31115     15.73500        -0.036846     -0.491726      0.598342
O       2.08886      3.78472      7.12186         0.051027     -0.654781      0.302835
O       2.07071     15.29409      7.13905        -0.185237      0.305862      0.284189
O      13.49942      3.79302      7.19660         0.001444     -0.493230     -0.555677
O      13.58490     15.29605      7.20921         0.055805      0.387108     -0.151232
O       2.13968      3.79719     11.47182        -0.092868      0.619627      0.545384
O       2.15812      0.02826     11.47312        -0.394894     -0.411004      0.530627
O      13.44056      3.77177     11.33641         0.459084      0.115517      0.782754
O      13.73478     15.32136     11.44829         0.028379      0.277743      0.352831
O       1.99351      7.63276      2.78269        -0.087012      0.331732      0.050145
O       2.10058      7.74933     15.84944         0.177587     -0.631183     -0.391406
O      13.42641      7.70425      2.83517         0.311190     -0.681678      0.064705
O      13.67904      7.71782     15.76363        -0.069130     -0.949360      0.419736
O       1.93437      7.61483      7.09188         0.406839     -0.098725      0.697057
O      13.57040      7.65266      7.03429        -0.029944     -0.410588      0.413078
O       2.04042      7.70400     11.43417        -0.057502     -0.044751      0.672328
O      13.56633      7.59173     11.54456         0.499787      0.541897      0.172095
O       2.00724     11.51135      2.76490        -0.174445     -0.268438      0.232531
O       2.19306     11.51265     15.87614        -0.500380      0.079746      0.114348
O      13.57807     11.52260      2.93235        -0.604376      0.146731     -0.037672
O      13.69288     11.44350     15.79065        -0.115761      0.979319      0.476240
O       2.03734     11.43748      7.17516         0.156046      0.366080      0.029467
O      13.61418     11.50491      7.08936        -0.044094     -0.062997      0.105094
O       2.21268     11.48307     11.41460        -0.161059      0.416564      0.365832
O      13.54846     11.52419     11.48361         0.087321     -1.060199      0.214003
O       5.75753      3.93190      2.79401         0.285667     -1.263060     -0.622917
O       5.91958      3.79990     15.84004         0.391944      0.273684      0.143883
O       5.79822      0.02157      2.78279        -0.149806      0.689908      0.285022
O       5.82203     15.35118     15.75817         0.596943     -0.740772      0.882266
O       5.98870      3.78383      7.07037        -0.590107     -0.006850      0.288613
O       5.93854     15.24178      6.99037         0.241249     -0.101757      0.249369
O       5.86891      3.72697     11.54553         0.037776      1.522829     -0.018456
O       5.93003     15.35752     11.37517         0.160089     -0.499229      0.470932
O       5.86549      7.68388      2.60126        -0.392195      0.087545      0.188234
O       5.90813      7.67855     15.89183         0.332813     -0.050726      0.094735
O       5.94083      7.66988      7.18918        -0.130717     -0.900494      0.304278
O       6.00538      7.69448     11.43233         0.219698     -0.437654      0.312417
O       5.78963     11.51767      2.71218        -0.029538     -1.108848     -0.041460
O       5.99998     11.56343     15.86289        -0.459269     -0.151391      0.416176
O       5.75041     11.37668      7.06621        -0.010254      0.704490      0.167789
O       5.88742     11.49960     11.45795        -0.049789      0.370985      0.361012
O       9.68378      3.82996      2.67719         0.044909      0.494699      0.734098
O       9.80774      3.80085     15.78337        -0.025292      0.143902      0.588601
O       9.65793     15.34888      2.71059        -0.209154      0.375417      0.344441
O       9.85828     15.32682     15.78834        -0.251399      0.203766      0.698556
O       9.71697      3.77116      7.13871        -0.167589      0.656239      0.249143
O       9.53817     15.26876      6.94648         0.639177     -0.680343      0.686691
O       9.84250      3.71698     11.46148         0.076012     -0.185772      0.287666
O       9.71655     15.32336     11.57107        -0.111396     -0.227054     -0.207047
O       9.78219      7.62843      2.64703        -0.431589      0.345012      0.332059
O       9.87740      7.57985     15.79275         0.067220      1.183749      0.722739
O       9.64407      7.68974      7.16125         0.567162     -0.731331     -0.122491
O       9.56743      7.61528     11.32952         0.260567      0.616482      0.977343
O       9.57235     11.51707      2.50728         0.276252     -0.348036      0.753437
O       9.80437     11.46440     15.92408        -0.426660     -0.338143     -0.479351
O       9.72182     11.44888      7.12172         0.203591      1.006457      0.341369
O       9.79712     11.51858     11.44327         0.176753     -0.009114      0.590135
