  # total energy = -7881.83674117 
CRSYTAL
PRIMVEC
    15.3600000000000000    0.0000000000000000    0.0000000000000000
     0.0000000000000000   15.3600000000000000    0.0000000000000000
     0.2400000000000000    0.0000000000000000    17.440000000000000
PRESSURE
0.971693 1.18053 2.7725 -0.008404 -0.698721 -0.010854
PRIMCOORD
320 1
Pb       3.87901      3.85564      4.30629         0.271410     -0.362939     -0.176583
Pb       4.01925      3.81123     17.38823        -0.059487     -0.452496     -0.417600
Pb       3.79763     15.26965      4.31869         0.541786      0.263781     -0.612844
Pb       4.13558     15.34293     17.40075        -0.472704      0.234485      0.201934
Pb       0.06368      3.78728      4.30217         0.149699      0.040899     -0.308881
Pb      15.51075      3.81252     17.38365         0.151022     -0.047698      0.274662
Pb      15.33755     15.20788      4.27145         0.018841      0.827224     -0.331521
Pb      15.54737      0.00997     17.35622         0.311827      0.110940      0.478242
Pb       3.91653      3.84764      8.62494        -0.665798      0.336003      0.063735
Pb       3.86244     15.34665      8.72039         0.251440     -0.253062     -0.290923
Pb      15.46353      3.90443      8.69882         0.556575     -0.639891     -0.200459
Pb       0.13767      0.01580      8.70363        -0.263908      0.259196      0.157683
Pb       3.95531      3.81480     13.05438         0.006473      1.000712     -0.314631
Pb       4.01776     15.29362     13.07126        -0.297626     -0.255152     -0.656016
Pb      15.53448      3.67929     13.14483        -0.021990      0.380424     -0.894008
Pb      15.48223     15.23349     13.07631        -0.016522      0.220176     -1.010237
Pb       3.85374      7.60192      4.26324         0.122751      0.227650      0.208639
Pb       4.15884      7.55506     17.42239        -0.226785      0.543600     -0.580787
Pb      15.34781      7.67860      4.33727         0.352689     -0.033217     -0.264377
Pb       0.24319      7.59219     17.29249         0.262595      0.339120     -0.100817
Pb       3.91576      7.76315      8.67820        -0.128843     -0.774157     -0.164783
Pb       0.21061      7.70801      8.78850        -0.224801     -0.131671     -0.513276
Pb       4.06195      7.70529     12.95811        -0.259391     -1.070559      0.579356
Pb      15.42306      7.68692     13.16714         0.256270      0.081436     -0.418761
Pb       3.76353     11.51788      4.23841         0.507298     -0.304438     -0.378038
Pb       3.92271     11.44590      0.11738        -0.363997      0.289963     -0.697175
Pb      15.41263     11.48751      4.17173        -0.073883     -0.464537     -0.287568
Pb      15.57832     11.45254     17.37704         0.319657     -0.112591     -0.094155
Pb       3.91223     11.52131      8.66748        -0.019270      0.119086     -0.399525
Pb       0.16596     11.44335      8.65822        -0.192820      0.001706     -0.056286
Pb       3.88950     11.42066     13.17925         0.241248      0.409557     -0.424954
Pb      15.36753     11.48626     13.10579         0.120061     -0.213406     -0.121148
Pb       7.68364      3.71121      4.43141        -0.224287      0.678491     -0.191726
Pb       7.69876      3.90448      0.03802        -0.112015     -0.519897     -0.625846
Pb       7.72398      0.00734      4.36466        -0.384106     -0.232109      0.355590
Pb       8.00161      0.04906     17.37485        -0.224149      0.265471     -0.289043
Pb       7.74286      3.85289      8.58619         0.043771     -0.011272      0.327458
Pb       7.85271     15.21461      8.58316        -0.864133      0.199112     -0.340840
Pb       7.71899      3.81636     12.93132         0.099119      0.021291      0.172833
Pb       7.66145      0.12846     12.90812         0.119993     -0.767911      0.020777
Pb       7.77731      7.66797      4.34351        -0.144365     -0.136164     -0.193025
Pb       7.70948      7.63892      0.02641         0.130399      0.282247     -0.191351
Pb       7.78552      7.64312      8.72888         0.224997      0.180908     -0.463080
Pb       7.83404      7.75675     13.00779         0.330350     -0.346305      0.183330
Pb       7.81964     11.42080      4.23967        -0.502385      0.279651      0.592123
Pb       7.60616     11.58723      0.05134         0.088689     -0.011609     -0.196939
Pb       7.68269     11.49284      8.64161         0.462857      0.215424     -0.715435
Pb       7.80639     11.55881     13.06376        -0.189743      0.468392     -0.308503
Pb      11.60836      3.75773      4.45690        -0.378142      0.551910     -0.473820
Pb      11.55544      3.82341     17.36128         0.237416      0.256045     -0.178160
Pb      11.61457     15.34928      4.41692         0.241904     -0.038408     -0.581171
Pb      11.77073      0.12772     17.32177        -0.376444     -0.526910     -0.152013
Pb      11.70004      3.88929      8.69718         0.129669     -0.597855      0.153600
Pb      11.60993     15.31232      8.67734         0.523350      0.102026     -0.104511
Pb      11.57694      3.89168     13.04538         0.260883     -0.407700     -0.325053
Pb      11.54674     15.15676     13.07208         0.408825      0.342330     -0.538059
Pb      11.62943      7.62335      4.50432        -0.392913     -0.072358     -0.657300
Pb      11.74007      7.61521     17.34761        -0.407741      0.083613     -0.076225
Pb      11.69343      7.70260      8.67406         0.283894      0.308641     -0.124036
Pb      11.70279      7.68005     13.11140        -0.227830      0.418346     -0.702371
Pb      11.62286     11.49623      4.20454         0.045073     -0.238209      0.431445
Pb      11.58114     11.56781     17.41356         0.347130      0.162247      0.068879
Pb      11.66216     11.60010      8.61240        -0.051198     -0.460902     -0.135244
Pb      11.56704     11.51106     13.04031         0.089445     -0.225502     -0.263520
Ti       1.92388      1.88409      2.32474        -0.218233     -0.513341      2.077945
Ti       2.05448      1.88582     15.27230         1.517330      0.559769      2.473908
Ti       1.96176     13.47428      2.26402         0.146404     -0.815763     -1.566382
Ti       2.09768     13.50737     15.42373         0.846261     -1.412245      0.974733
Ti      13.41241      1.96378      2.32832         1.167454     -1.068261      2.834981
Ti      13.61601      1.95927     15.24488        -0.554176     -0.139302     -0.255094
Ti      13.42004     13.41072      2.30397         1.392127      0.387310      2.037027
Ti      13.66172     13.42137     15.44359        -1.545572      0.254933     -0.158721
Ti       2.07091      1.81695      6.51326        -0.960299      0.703270      1.893461
Ti       1.99662     13.40200      6.55896         0.044432     -0.579935      1.502832
Ti      13.57049      1.80972      6.66911         0.964376      0.310472      1.171894
Ti      13.62514     13.34708      6.60417        -0.585844      0.467529      1.367776
Ti       2.04246      1.88488     11.04300        -0.916155     -0.655405      0.107837
Ti       1.98852     13.31614     11.09593         1.115361      0.389335      0.801614
Ti      13.49397      1.88990     11.12823         1.244809     -0.250705      0.388959
Ti      13.47630     13.35998     10.97409         0.606263      0.235130      0.027086
Ti       1.98678      5.71284      2.26224        -1.014111     -0.161668      0.235125
Ti       2.12596      5.75332     15.38693         0.617433     -0.375798     -1.511031
Ti      13.39061      5.71097      2.35133         0.388274      0.266492      1.226235
Ti      13.59850      5.72963     15.32105         0.092315     -0.240171      0.275115
Ti       1.99965      5.75977      6.67080         0.824580     -0.296413      0.579956
Ti      13.57192      5.70692      6.66833         0.723433      0.740531      0.833122
Ti       2.02275      5.72917     11.07912         1.255387      0.259093     -1.106688
Ti      13.61296      5.74456     10.99902         0.182628      0.373949      1.216171
Ti       1.95155      9.49976      2.18308         0.027456      0.574115      0.852337
Ti       2.26073      9.59437     15.39795        -0.677648     -0.292741      2.234428
Ti      13.44505      9.46040      2.14411         0.978576      1.058121      0.640032
Ti      13.61325      9.59458     15.49586        -0.004548      0.428542     -0.996125
Ti       2.08415      9.56962      6.57818        -0.602657     -0.271964      0.860238
Ti      13.54915      9.57521      6.63862         1.007313     -0.354366      0.933740
Ti       2.08227      9.53351     11.14931        -0.220688      0.184461      2.245607
Ti      13.54373      9.56244     11.08763        -0.097489     -0.361770     -0.584834
Ti       5.75723      1.88680      2.25751        -0.058846      0.643909      1.570705
Ti       5.93075      1.97928     15.30877         0.219555     -0.197687      2.186177
Ti       5.91293     13.45404      2.39535        -1.139668     -0.169338      0.135419
Ti       5.91065     13.54114     15.49402         0.750524     -1.052322      0.243051
Ti       5.85195      1.87304      6.69054        -0.143207     -0.063676      0.217324
Ti       5.73871     13.38160      6.53928         2.026013      0.167558      0.960158
Ti       5.78531      1.89838     10.87065         0.158614     -0.205206      2.843986
Ti       5.82706     13.38868     10.94085        -0.465369      0.195416      0.725072
Ti       5.83647      5.74583      2.25941         0.303092     -0.097041      0.436719
Ti       6.01833      5.77476     15.49168        -0.311384      0.178812     -0.930955
Ti       5.84732      5.76933      6.80076         0.043019     -0.198572      0.946816
Ti       6.03604      5.77614     10.95336        -2.756874     -0.756495      0.180356
Ti       5.74009      9.58243      2.36032         0.981174      0.005884      1.075144
Ti       6.01312      9.61478     15.44805        -0.194019      0.213306      1.747971
Ti       6.00033      9.50966      6.64243        -1.214097      1.195851     -0.151736
Ti       5.96526      9.59026     11.00146        -0.633892      0.256138      1.217608
Ti       9.60251      1.97597      2.48706         0.388707     -0.033745     -0.036983
Ti       9.77966      1.95586     15.26288        -0.922798      0.448242      1.307669
Ti       9.70478     13.55055      2.40088        -0.548684     -1.281080      1.129997
Ti       9.76048     13.45894     15.36516         0.261756      0.596185      1.886301
Ti       9.74458      1.97720      6.73653        -0.586472     -0.346113      1.250617
Ti       9.72738     13.43511      6.59333        -0.859909     -0.526736      0.172258
Ti       9.72353      1.90424     10.94074         0.142239     -0.535621      1.385498
Ti       9.62012     13.45891     10.87983         0.035121     -0.740738      0.993380
Ti       9.61438      5.76193      2.29119         0.746454     -0.083133      1.127436
Ti       9.81117      5.83252     15.25480        -0.938652     -0.536091      3.059396
Ti       9.81008      5.75331      6.74120        -1.294866      0.098052     -0.253662
Ti       9.79985      5.68992     10.91828         0.453751      0.940215      2.288299
Ti       9.65324      9.58983      2.32425        -0.523301     -0.245311     -0.398801
Ti       9.70991      9.66664     15.46052         0.644723     -0.402789      0.619783
Ti       9.74304      9.60492      6.62969         0.354245     -0.136144      0.777312
Ti       9.67321      9.58383     10.97643         1.976926      0.108604      0.429661
O       1.73460      2.04646      0.67312         0.274271     -0.372235     -3.360327
O       2.03163      1.83430     13.56321        -0.004303      0.121928     -0.467499
O       1.97972     13.58505      0.46077        -0.368477     -0.472446      0.812896
O       2.10389     13.45542     13.67613        -0.028675      0.044476     -0.335143
O      13.44511      1.83923      0.66093        -0.202984      0.278170     -2.970459
O      13.65276      2.03205     13.47208         0.026212     -0.351580      0.781238
O      13.41401     13.41583      0.64148         0.015606      0.308617     -3.603841
O      13.58200     13.43619     13.70866         0.004289     -0.040988     -0.929029
O       1.93626      1.88346      4.79242         0.397587     -0.030996     -0.271364
O       1.93156     13.33356      4.83247         0.309374     -0.053097     -0.910759
O      13.60199      1.81424      4.93338        -0.431984      0.165836     -0.347867
O      13.57344     13.43328      4.84829         0.040304     -0.145934     -0.015512
O       1.96607      1.72229      9.26635         0.234187      0.368452      0.476063
O       2.17879     13.21570      9.36364        -0.212956      0.236011     -0.510391
O      13.69224      1.76597      9.38538        -0.363445      0.320831     -0.164823
O      13.52673     13.27444      9.21981        -0.059937      0.314604      0.152823
O       1.99952      5.72342      0.49090        -0.103256     -0.189370      0.061909
O       2.20137      5.59596     13.59206        -0.815893      0.572517      0.802126
O      13.21170      5.65963      0.64540         0.302627      0.220300     -1.258206
O      13.58537      5.77841     13.57852         0.174483     -0.194760      0.124326
O       1.97180      5.80288      4.90669         0.279929     -0.217704     -0.260558
O      13.59151      5.71524      4.92261        -0.337072     -0.052517     -0.180106
O       2.17816      5.77906      9.22068        -0.576699      0.004941      1.500046
O      13.62430      5.96039      9.26338        -0.267095     -0.646050     -0.865099
O       1.90047      9.55786      0.43995         0.219914     -0.136429     -0.400905
O       2.29521      9.50375     13.70771        -0.195366      0.214284     -2.168733
O      13.48841      9.56200      0.33924         0.035705     -0.255062      0.737067
O      13.58816      9.50179     13.67153        -0.192829      0.298654      1.109313
O       1.94198      9.50434      4.85905         0.186170      0.136289     -0.607426
O      13.65044      9.62618      4.91397        -0.177248     -0.065473     -0.922364
O       2.05941      9.56316      9.45712        -0.142136      0.209708     -2.389464
O      13.60175      9.50517      9.26335        -0.156851      0.170612      1.149159
O       5.79082      2.09086      0.55041         0.038252     -0.609228     -0.723187
O       6.00560      1.92572     13.57816        -0.047007     -0.075407     -0.753876
O       5.80705     13.55714      0.60812         0.203326     -0.139893      0.217704
O       6.01911     13.50802     13.77707        -0.184992      0.016519     -1.054457
O       5.84610      2.08450      4.94569         0.076878     -0.410961     -0.177681
O       5.82979     13.43127      4.80291        -0.510410     -0.050390     -0.515930
O       5.81036      1.68637      9.21070        -0.269379      0.497054     -1.916335
O       5.62211     13.54320      9.21667         0.753707     -0.663164     -0.696777
O       5.87279      5.77316      0.46946        -0.536120     -0.109675      0.619133
O       5.95050      5.78254     13.73362         0.762481     -0.152807     -0.204250
O       5.85679      5.72463      5.09735         0.008099      0.018750     -1.754377
O       5.82806      5.75298      9.20025         0.367434      0.167205      0.175689
O       5.66720      9.68685      0.64781         0.182865     -0.378068     -1.682673
O       6.12554      9.60482     13.73531         0.122783     -0.117531     -1.699141
O       6.03001      9.55998      4.90945        -0.188373     -0.398880     -0.330458
O       6.06538      9.57770      9.28928        -0.469005     -0.062831     -1.093828
O       9.69302      2.02006      0.75904        -0.042387     -0.409196     -1.168150
O       9.68891      2.04660     13.55569        -0.177431     -0.537798     -1.178758
O       9.71111     13.44386      0.68892        -0.278540      0.391224     -1.137155
O       9.78141     13.47294     13.65140        -0.171344     -0.134177     -1.689887
O       9.62660      2.06436      5.01112         0.292939     -0.406950     -1.133994
O       9.69674     13.39460      4.83729         0.374737      0.310924      0.206875
O       9.95788      1.84198      9.26175        -0.522160      0.159597     -1.685493
O       9.56132     13.40384      9.12011         0.466546      0.030099      0.203511
O       9.75183      5.81086      0.52441        -0.147978     -0.407607      0.258579
O       9.79644      5.71052     13.57147        -0.327823      0.070943     -1.984231
O       9.72924      5.66234      5.00423         0.200391     -0.029987     -0.432274
O       9.97756      5.83189      9.22681        -0.515407     -0.163591     -0.943009
O       9.52810      9.69392      0.55066         0.549989     -0.328236      0.953394
O       9.70466      9.48244     13.71498        -0.308198      0.837641     -0.194858
O       9.74231      9.55123      4.89145        -0.084708      0.164597     -0.952747
O       9.75925      9.61874      9.24028         0.066140     -0.149437     -0.748343
O       3.89708      1.85155      2.67707         0.130426      0.049006      0.162269
O       4.00125      1.86290     15.80122         0.438952      0.324601     -0.369821
O       3.89826     13.33775      2.66461         0.156308      0.436995      0.470119
O       4.03358     13.55507     15.89331         0.302813     -0.106399     -0.387019
O      15.38961      1.96396      2.73363        -0.897030     -0.286794      0.272536
O       0.23024      1.98696     15.82711        -0.446936     -0.103091     -0.574216
O       0.09336     13.45679      2.65861        -0.594306     -0.516991      0.063625
O      15.54668     13.31645     15.81846         0.745708      0.838971      0.088825
O       3.91642      1.83719      7.02936        -0.048510      0.243203     -0.109574
O       3.95473     13.38740      7.04810        -0.681596     -0.541489     -0.242680
O       0.12657      1.75863      7.10907         0.798182      0.413279     -0.295203
O       0.14840     13.40592      7.11419        -0.196815     -0.140700     -0.413778
O       3.90908      1.79199     11.48829         0.895410      0.634563     -0.410160
O       4.03777     13.28758     11.46957        -1.001391      0.065827      0.652377
O       0.17596      1.84653     11.57979        -0.340205      0.048699     -0.127313
O      15.48888     13.24496     11.41834        -0.388536      0.655704      0.126357
O       3.90542      5.70862      2.75906         0.260758      0.065556     -0.366900
O       4.07835      5.89251     15.66164         0.407051     -0.113739      1.170448
O       0.06985      5.70035      2.74364        -0.036796     -0.013211     -0.480529
O      15.51529      5.65360     15.85402        -0.039747      0.244000     -0.393403
O       3.96447      5.84277      7.19471        -0.215721     -0.314967     -0.376030
O       0.20315      5.73074      7.16637        -1.415036      0.340374     -0.141160
O       3.88962      5.73499     11.51744         1.476607      0.092216     -0.193660
O       0.15737      5.99742     11.30840        -0.039506     -0.672588      0.405812
O       3.92039      9.54677      2.75602        -1.480584      0.039426      0.165575
O       4.14441      9.46891     15.85804        -0.165228     -0.183104      0.113542
O       0.12639      9.46486      2.69728        -1.113955      0.415928     -0.468777
O       0.28397      9.60243     15.71595        -0.920610      0.227462      0.342368
O       3.99860      9.60619      6.92331        -0.196208     -0.218295      0.434607
O       0.10577      9.64197      7.10920         0.682410     -0.486192      0.056735
O       4.04051      9.62341     11.55817         0.591244     -0.059528     -0.629603
O      15.43114      9.54392     11.71126         0.542975      0.020300     -0.901986
O       7.72866      1.90493      2.77716        -0.360772     -0.012862      0.161514
O       7.91542      1.96921     15.85847        -0.291772     -0.232406     -0.224140
O       7.75040     13.40685      2.85859         0.084438      0.273607     -0.623202
O       7.92920     13.37606     15.81106        -1.058803      0.798633      0.556219
O       7.79041      2.05446      7.13770         0.143479     -0.663531     -0.233506
O       7.73819     13.46350      6.95261         0.463589      0.045908      0.371662
O       7.71895      1.87209     11.27060         0.691514     -0.064608      0.059532
O       7.70395     13.49097     11.40731         1.676307      0.033645     -0.187730
O       7.72621      5.78919      2.70253        -0.278698     -0.221990     -0.211877
O       7.97668      5.72005     15.93785        -0.348492      0.298536     -0.494909
O       7.86703      5.77592      7.23780        -0.409131     -0.381713     -0.152043
O       7.82745      5.62750     11.27540         1.492699      0.447975      0.003800
O       7.73614      9.55653      2.73276         1.279409     -0.107450     -0.062378
O       7.87869      9.71527     16.00896         0.292505     -0.168256     -0.351757
O       7.87336      9.53416      7.12671         0.259492     -0.050144      0.060130
O       7.88673      9.47760     11.34535        -1.388131      0.350097      0.708544
O      11.56731      1.84058      2.87601        -0.472331      0.240995      0.187157
O      11.67309      1.86808     15.57524         0.894960      0.447068      0.554674
O      11.61584     13.52915      2.75765        -1.051724     -0.289131      0.436198
O      11.66154     13.46976     15.78934         1.073814      0.217478      0.359338
O      11.69861      2.03502      7.14646        -0.333043     -0.803953     -0.491267
O      11.68841     13.49386      7.04970        -0.405480     -0.275971     -0.254943
O      11.65490      1.96494     11.47363         0.152877     -0.216788      0.002854
O      11.58378     13.35905     11.35039         0.084614     -0.134516      0.127320
O      11.55957      5.86182      2.86769        -0.023922     -0.784495     -0.070051
O      11.65422      5.72197     15.76023         1.213133      0.369198     -0.137549
O      11.67776      5.70660      7.17784         0.994734     -0.183242     -0.473157
O      11.68111      5.65358     11.49666        -0.402016      0.370898     -0.527682
O      11.68411      9.61053      2.65015        -1.355986     -0.216862     -0.086012
O      11.66353      9.62760     15.88914         0.504437      0.050334     -0.336943
O      11.68835      9.59739      6.98034        -1.075722      0.039365      0.394557
O      11.64028      9.65402     11.61311         0.103772     -0.515111     -0.600217
O       1.99112      3.69570      2.68491         0.412250      2.812970      0.662247
O       2.32263      3.88402     15.71671        -0.867885     -1.400699      0.324923
O       1.94863     15.28314      2.71254         0.357820      0.650007      0.304407
O       2.15889      0.01367     15.88282        -0.892995      0.468733     -0.686971
O      13.39348      3.84004      2.79269         0.153864     -0.057557     -0.011930
O      13.64936      3.81353     15.77604        -0.422036     -0.156318     -0.086801
O      13.52454     15.34759      2.74734        -0.137454      0.144658      0.203329
O      13.63223      0.08878     15.66999         0.496413     -0.395979      0.567988
O       2.05349      3.81384      7.08719         0.094171     -0.557158     -0.374423
O       2.19013     15.22610      6.90250        -0.720955      1.012572      0.115837
O      13.68638      3.81511      7.12885        -0.295555     -0.064625     -0.105829
O      13.61454     15.31720      7.19158        -0.546368     -0.347525     -0.618326
O       2.09900      3.81293     11.46298        -0.669408     -0.343703     -0.266075
O       2.03531     15.30071     11.53315         0.098331     -0.958215     -0.246118
O      13.73872      3.89407     11.45386        -0.203967     -0.660848     -0.363348
O      13.52878     15.24251     11.45218         0.226706      0.283014      0.215331
O       2.02598      7.60980      2.55169         0.242279     -0.216111      0.356478
O       2.04850      7.60461     15.74117         0.054131      0.525093      0.446203
O      13.47183      7.69361      2.81082         0.275089     -0.427255     -0.600490
O      13.65760      7.64951     15.68951        -0.146371     -0.381803      0.544780
O       2.07245      7.65409      7.08531        -0.164960      0.998576      0.102808
O      13.54944      7.64472      6.94778         0.088856     -0.335990      0.236281
O       2.15490      7.70162     11.51024        -0.330307     -0.429361      0.060751
O      13.52025      7.63903     11.45881        -0.361560      0.672191      0.396174
O       1.98970     11.44757      2.56143        -0.082615      0.097821      0.330761
O       2.36878     11.47143     15.75679        -0.625060      0.800468      0.083252
O      13.51181     11.50224      2.65399         0.275369     -0.824714     -0.046723
O      13.63929     11.58352     15.72875        -0.058291     -1.422314      0.514726
O       2.03018     11.47048      7.06999         0.319557      0.113231     -0.006346
O      13.52699     11.48049      7.08035         0.217755      0.906608     -0.177316
O       2.08437     11.42072     11.62185        -0.183523      0.544054      0.148832
O      13.55697     11.47174     11.45265        -0.077932      0.099538      0.308637
O       5.83650      3.83980      2.71289        -0.087463      0.370601      0.042602
O       5.98743      3.82976     15.81062        -0.160358      0.204727     -0.019144
O       5.80000      0.02709      2.88035         0.295444     -0.617430     -0.614567
O       5.99190      0.09438     15.83086         0.412718     -0.235784      0.089574
O       5.75223      3.82151      7.15269         0.684613     -0.053551      0.216277
O       5.89505      0.00687      7.01962        -0.155500     -0.482308     -0.326918
O       5.90797      3.86523     11.45568        -0.615240     -0.712067     -0.627503
O       5.75783     15.28449     11.41787         0.516472      1.022806      0.217554
O       5.85130      7.69998      2.76558        -0.256283     -1.692215     -0.124240
O       6.16324      7.70440     15.93062        -0.253486     -0.212781     -0.115414
O       5.94424      7.68178      7.13489         0.016892     -0.087969      0.285472
O       5.96333      7.61883     11.40801         0.036962      0.548993      0.019243
O       5.85954     11.44295      2.67864        -0.050707      1.564262      0.407803
O       5.93957     11.53810     15.80973        -0.189807      0.257189      0.517082
O       6.00742     11.46184      6.95108        -0.526983      0.444954      0.505535
O       6.02856     11.45272     11.35245         0.174119      0.097734      0.192676
O       9.64429      3.86567      2.77924         0.395961      0.036240      0.144591
O       9.77173      3.88271     15.71667         0.551344     -0.614802      0.311543
O       9.59696     15.33509      2.86750         0.315872      1.144634     -0.025289
O       9.80867      0.02495     15.84117        -0.178091      0.343693     -0.116120
O       9.73450      3.82558      7.11919         0.283214      0.062984      0.720990
O       9.66247     15.34669      7.09716         0.646143      0.628270     -0.357590
O       9.82860      3.74930     11.27507        -0.658102      1.307571      0.174502
O       9.88838     15.29922     11.29692        -0.774555      0.314080      0.264243
O       9.67722      7.59077      2.74275         0.054117      1.604937      0.009947
O       9.76645      7.73834     15.77777         0.067829     -0.394750      0.151950
O       9.81270      7.61776      6.87117         0.075428      1.215051      0.885720
O       9.76441      7.69002     11.44595         0.177433     -1.084429     -0.269875
O       9.70557     11.51730      2.77494         0.252961     -0.552734     -0.356227
O       9.77868     11.63279     15.95691         0.145528     -1.350668     -0.618217
O       9.71307     11.54982      6.99961         0.146652     -0.392344      0.104016
O       9.71829     11.51957     11.43379        -0.548002      0.310202      0.019192
