  # total energy = -7880.32336333 
CRSYTAL
PRIMVEC
    15.3600000000000000    0.2300000000000000    0.0000000000000000
     0.0000000000000000   15.3600000000000000    0.0000000000000000
     0.0000000000000000    0.0000000000000000    17.440000000000000
PRESSURE
1.47575 1.67945 -1.87948 -0.306464 0.20667 -1.54238
PRIMCOORD
320 1
Pb       3.74119      3.73665      4.53679         0.138859      0.447282     -0.435474
Pb       3.86312      3.92416     17.34143         0.130397      0.282732     -0.127124
Pb       3.72693      0.09814      4.30471         0.363785      0.324066      0.434968
Pb       3.78347      0.10662     17.35265         0.262904     -0.479848      0.603827
Pb      15.18109      3.90344      4.21904         0.780131      0.820399      0.496223
Pb      15.27429      4.09679     17.20362         0.009172     -0.520525      1.104631
Pb       0.03035     15.26099      4.30619        -0.110454     -0.005351     -0.189253
Pb       0.01188     15.34814     17.34481        -0.216627      0.027933      0.002248
Pb       3.82914      3.94836      8.77939        -0.198543     -0.025842      0.037992
Pb       3.82713     15.37796      8.76653        -0.005750      0.658735     -0.474293
Pb      15.34369      4.08944      8.74534        -0.417086      0.005865      0.196432
Pb      15.33312      0.32917      8.70770        -0.382874      0.249917      0.134503
Pb       3.79966      3.96208     12.98663        -0.090342      0.125683      0.403004
Pb       3.92905      0.06570     13.01852        -0.299787     -0.217765      0.183348
Pb       0.04793      3.87120     13.01934         0.038835      0.037344      0.087340
Pb       0.03824     15.33051     13.07919        -0.367979     -0.183309     -0.061874
Pb       3.74073      7.65201      4.37776         0.450300     -0.315524     -0.321309
Pb       3.88756      7.80682     17.39306         0.014709     -0.040181      0.022427
Pb       0.05487      7.62845      4.24796        -0.019119     -0.141675     -0.070311
Pb       0.07443      7.73406     17.40978        -0.354528     -0.188808     -0.017069
Pb       3.68508      7.85228      8.61643         0.770379     -1.131008      1.186505
Pb      15.35569      7.98876      8.66236        -0.339664     -0.768649      0.172862
Pb       3.89885      7.98175     13.08540        -0.384169     -0.850023     -0.046239
Pb      15.29996      7.93640     13.01358         0.366111     -0.204661      0.485140
Pb       3.85397     11.68001      4.41686         0.007306     -0.230748     -0.014338
Pb       3.80388     11.65912     17.36601         0.288073     -0.855497      0.463304
Pb      15.29716     11.81363      4.30450         0.177978     -0.325625      0.203198
Pb       0.01945     11.35303      0.03981        -0.364685      0.453203     -0.155261
Pb       3.64704     11.65661      8.64589         0.583584     -0.819801      0.462764
Pb      15.15383     11.68136      8.74276         0.405576      0.194166     -0.691991
Pb       3.83306     11.59889     13.13778         0.079440      0.109957     -0.636463
Pb       0.01258     11.47973     13.15430        -0.009845      0.258011     -0.317039
Pb       7.58933      3.89202      4.42234         0.264645     -0.024184     -0.269221
Pb       7.66716      3.83372     17.39706        -0.261629      0.535739     -0.414616
Pb       7.47675      0.24943      4.39403         0.911799     -0.364547     -0.301360
Pb       7.49192     15.43290     17.29607         0.667078     -0.349509      0.535631
Pb       7.69057      4.04336      8.77905        -0.036269      0.160741     -0.319746
Pb       7.53103      0.20101      8.74909         0.948879     -0.188758      0.179148
Pb       7.69264      3.84104     13.04677         0.065194      0.063202     -0.115934
Pb       7.67463     15.47123     13.03294         0.173185     -0.097505     -0.358415
Pb       7.66977      7.84982      4.27795         0.387592     -0.213707      0.514454
Pb       7.70585      7.87178      0.01145        -0.033453     -0.233043     -0.341285
Pb       7.65799      7.69571      8.56695        -0.070253      0.246957      0.629460
Pb       7.66993      7.69726     13.00155         0.315558      0.849954      0.083436
Pb       7.66440     11.60268      4.20997        -0.040252     -0.171022      1.113719
Pb       7.83967     11.64770     17.43368        -0.347111      0.087884     -0.496348
Pb       7.56398     11.62852      8.58914         0.932674     -0.818040      1.329356
Pb       7.69889     11.40001     12.91753        -0.252368      0.495375      0.577696
Pb      11.51452      3.87603      4.22264        -0.130681      0.044427      0.676058
Pb      11.46504      3.94938     17.31127         0.426817     -0.057108      0.225687
Pb      11.41858      0.18636      4.22479        -0.143661      0.128562      0.278621
Pb      11.54680     15.39570     17.38562        -0.479291      0.147993      0.290982
Pb      11.56598      4.14135      8.65644         0.319518     -0.540487      0.376346
Pb      11.56627     15.44445      8.76551        -0.179514      0.651979     -0.701661
Pb      11.65530      3.98968     13.06259        -0.234050      0.302399      0.095262
Pb      11.48938     15.25107     13.14126         0.429352      0.304674     -0.234271
Pb      11.50834      7.81676      4.28233        -0.392681     -0.084257      0.408845
Pb      11.59101      7.84664     17.40904         0.031484     -0.797268     -0.355982
Pb      11.42845      7.87128      8.62011         0.303710     -0.025854      0.544553
Pb      11.55299      7.71666     12.98783        -0.268074      0.377480      0.407469
Pb      11.41562     11.82132      4.46494         0.075277     -0.462680     -0.083965
Pb      11.60375     11.57511      0.05131         0.109987      0.463742     -0.288630
Pb      11.46219     11.59338      8.59430        -0.105484     -0.022205      0.478758
Pb      11.47290     11.54684     13.17709        -0.074243      0.255943     -0.580534
Ti       1.91771      1.99581      2.22525         0.141762     -0.398819     -0.561187
Ti       1.90258      1.96040     15.43031         0.088060     -0.573059      1.302861
Ti       1.97330     13.46746      2.32640        -1.018602     -0.230919     -0.024214
Ti       1.92691     13.40048     15.46516        -0.481716      0.433030     -0.144553
Ti      13.50686      2.03436      2.26003        -1.053121     -0.045897     -1.858022
Ti      13.41094      2.04932     15.33358        -0.228335      0.350765     -0.909099
Ti      13.42895     13.52971      2.34176        -0.720322      0.979175     -1.219636
Ti      13.43762     13.63205     15.38075         0.466344     -0.944338      1.100985
Ti       1.83914      1.99904      6.76449         0.801752     -0.281086     -0.493602
Ti       1.89866     13.54311      6.80556        -0.916732     -0.660477     -1.474236
Ti      13.37519      2.13545      6.65493        -0.422253      0.285002      2.139581
Ti      13.39460     13.64793      6.62741         1.038935      0.144691      0.329596
Ti       1.93305      1.84932     11.19276        -0.827910      1.557978     -2.779839
Ti       1.88931     13.33281     10.91250         0.220410      0.743977      0.218983
Ti      13.44685      2.04524     11.15962         0.845875      0.114983     -1.646173
Ti      13.50014     13.51115     11.03397        -1.510253      1.017364      1.334489
Ti       1.92965      5.71884      2.28739        -0.248489      0.475723      0.544719
Ti       1.93517      5.80190     15.42294         0.280071      0.630188     -0.772042
Ti      13.39733      5.90720      2.33141         0.417479     -0.616763     -1.359859
Ti      13.44654      5.92132     15.38710        -0.903835      0.624452     -0.728411
Ti       1.86981      5.75997      6.74974        -0.228917     -0.862844     -0.866572
Ti      13.40714      6.00102      6.48678         0.525027     -1.469789      0.749865
Ti       1.91542      5.86810     11.02831         0.190545     -1.005485     -1.365502
Ti      13.50188      5.90478     11.10491        -1.054223      0.394589     -0.707092
Ti       1.98516      9.66653      2.40806        -1.255228     -0.099764     -1.073816
Ti       1.88729      9.61130     15.37855        -0.003767     -0.223375     -0.684294
Ti      13.46601      9.71167      2.37634         1.065217      1.253390     -0.673737
Ti      13.39206      9.82529     15.33117         0.435723     -0.889732      0.516352
Ti       1.91912      9.58391      6.56495        -1.423030      0.904034      0.475868
Ti      13.43169      9.74464      6.60079        -0.521179      0.339422     -1.160952
Ti       1.84844      9.58121     11.01305         0.837494     -0.426539      0.247617
Ti      13.44526      9.80015     10.99038        -0.623696     -0.715074     -0.076670
Ti       5.72135      1.99043      2.26241         0.390452     -0.833280      0.929061
Ti       5.72469      1.98858     15.31766         0.171890      0.413647     -0.439227
Ti       5.71443     13.50480      2.42535         1.615849      0.583130     -1.392650
Ti       5.73941     13.49627     15.27058         0.025763     -0.401614      0.101165
Ti       5.70451      2.01366      6.77089        -0.600359     -0.220209     -1.042437
Ti       5.84850     13.47791      6.83518        -0.666915      0.797933     -1.630186
Ti       5.78000      2.02332     11.08137        -0.204007      0.034439     -0.639341
Ti       5.76192     13.49939     11.00256         0.366796     -0.880491      0.625606
Ti       5.71545      5.81088      2.40044         0.449074     -0.221013      0.086644
Ti       5.76099      5.90303     15.37428         0.179192     -1.123650     -1.061287
Ti       5.72265      5.82433      6.63331        -0.146344     -0.788977     -0.455138
Ti       5.77374      5.87301     11.17140        -1.580038      0.338960     -1.267640
Ti       5.71449      9.59144      2.37546         0.404113      0.289067     -0.898559
Ti       5.74347      9.73413     15.34115         0.389627     -0.157698     -0.721604
Ti       5.70273      9.65016      6.69687         0.806841     -0.396332     -1.019705
Ti       5.68162      9.69817     10.99390         1.017610      0.060244     -1.379417
Ti       9.60155      2.07060      2.27910        -0.285810     -1.707898      0.839402
Ti       9.56461      2.00421     15.32242        -0.113745     -0.639121     -0.361469
Ti       9.57101     13.50339      2.44223        -0.081793      1.661498     -0.494514
Ti       9.62109     13.52873     15.36012        -0.459246     -0.127902      0.765598
Ti       9.51771      2.09001      6.77933         1.147915     -0.308822     -1.594550
Ti       9.62328     13.62667      6.73355        -0.486865      0.011847     -1.707168
Ti       9.73366      2.00002     11.01383        -0.983983      0.335626     -0.532880
Ti       9.57571     13.57208     11.01977         0.197768     -0.344855      0.179213
Ti       9.55812      5.78016      2.32632        -0.281491      0.942293      0.319717
Ti       9.53783      5.81820     15.38523         1.151258      1.143928     -1.769931
Ti       9.66666      5.88598      6.65356        -1.288088      0.027735     -0.284542
Ti       9.57904      5.83544     11.17303         0.687936      0.840494     -0.759478
Ti       9.73178      9.67304      2.33794        -1.868587      0.021337      0.070152
Ti       9.68331      9.66629     15.41650        -0.886519      0.123681     -1.385646
Ti       9.53742      9.70598      6.67415         0.795791      0.265867     -1.299191
Ti       9.64954      9.74678     11.02009        -0.752880     -1.161153     -1.524933
O       1.79026      1.87221      0.44133         0.350864      0.313436      0.431072
O       2.08020      1.91449     13.74044        -0.284323     -0.046487     -1.832816
O       1.98840     13.30846      0.57308        -0.228978      0.346168     -0.241465
O       1.95634     13.29645     13.71845         0.057931      0.041832     -0.780330
O      13.48416      2.20950      0.45336        -0.081468     -0.793676      0.752638
O      13.42115      2.08206     13.52629        -0.026076     -0.057911      1.026692
O      13.37761     13.57339      0.51413        -0.155767     -0.133110      0.513153
O      13.43469     13.60808     13.66278         0.340287     -0.127815     -1.140532
O       2.00243      1.91537      4.94781        -0.370960      0.278352      0.583606
O       1.88396     13.54662      4.93454         0.137088     -0.052176      1.206123
O      13.30867      2.18844      4.94897         0.590734     -0.305480     -1.664882
O      13.54783     13.59629      4.84325        -0.424224     -0.011483      0.644728
O       1.77168      1.94330      9.33048         0.570411     -0.281799      1.156693
O       1.88298     13.41694      9.10105         0.212839      0.143956      1.096292
O      13.63333      2.16114      9.30878        -0.571859     -0.513098      1.264460
O      13.44737     13.56577      9.30696        -0.076763      0.186530     -0.733967
O       1.89005      5.75603      0.53562         0.163022     -0.095059     -0.532522
O       1.87357      5.92885     13.69401         0.207681     -0.479341      0.056669
O      13.31806      5.96627      0.47345         0.357167     -0.338288      1.395167
O      13.34862      5.88321     13.55612         0.431186      0.210057      1.152141
O       2.07518      5.68489      4.91091        -0.607249      0.528886      1.352382
O      13.30396      5.80106      4.71227         0.639452      0.539359      0.614778
O       1.79672      5.69353      9.15602         0.539032      0.758614      1.630860
O      13.30882      5.80539      9.34004         0.513186      0.359783      0.762591
O       1.77279      9.72900      0.56435         0.394423     -0.384890      0.483146
O       1.87814      9.64651     13.57180        -0.002557      0.335509      0.327666
O      13.61260      9.84020      0.52010        -0.613863     -0.375619      1.275709
O      13.23839      9.75554     13.59241         0.792475      0.226539     -0.782912
O       1.99508      9.51339      4.77427        -0.296627      0.326009      1.072203
O      13.31074      9.82464      4.75393         0.618018     -0.162492      1.472439
O       1.80690      9.43122      9.26222         0.296427      0.288431     -0.131824
O      13.43379      9.84206      9.21424         0.055632     -0.246276      0.390685
O       5.80062      1.68429      0.53865        -0.025235      1.009277     -0.835757
O       5.68831      1.98973     13.51686         0.170209     -0.094250      0.435126
O       5.90137     13.65168      0.65534        -0.880248     -0.624212      0.582068
O       5.60584     13.44197     13.50845         0.020521     -0.088338     -0.262976
O       5.57119      1.99906      4.93789         0.619788     -0.269856      0.572120
O       5.77317     13.45542      5.04193        -0.134435      0.120587      0.008421
O       5.67525      2.05460      9.28212         0.269260     -0.498878      0.482438
O       5.77791     13.44951      9.24339         0.033492      0.422004     -0.675451
O       5.84593      5.81496      0.63391        -0.075491     -0.017430     -0.067648
O       5.61396      5.77089     13.57824         0.676904      0.460736      0.317753
O       5.55888      5.78365      4.85678         0.480996      0.046521      0.426169
O       5.73532      5.85491      9.39181         0.338468     -0.102612     -0.061476
O       5.65758      9.50463      0.57505         0.421416      0.212472      0.047663
O       5.70106      9.71529     13.49894        -0.203182      0.232514      1.640976
O       5.60435      9.61358      4.88829        -0.055824      0.255002      1.429000
O       5.81922      9.68481      9.18774        -0.268529     -0.430514     -0.095896
O       9.69012      1.94296      0.55408        -0.555295      0.465525     -0.960911
O       9.45126      1.98724     13.51965         0.362572      0.167560      1.020317
O       9.73055     13.55141      0.65624        -0.485787     -0.708475     -0.160981
O       9.71482     13.44682     13.63667        -0.422371      0.384085     -0.700663
O       9.56016      2.20234      4.93799        -0.074866     -0.577861      1.326327
O       9.60987     13.52993      4.88824         0.149189      0.111353      1.121446
O       9.63137      2.00579      9.21901        -0.175791     -0.162711      0.649564
O       9.45774     13.69913      9.27470         0.953508     -0.327520     -0.086757
O       9.47613      5.91454      0.57297         0.162745     -0.561127     -0.166652
O       9.62564      5.93027     13.51440        -0.359327     -0.549222      1.407827
O       9.53756      6.04269      4.92586         0.708648     -0.549202     -0.165910
O       9.59236      5.87632      9.37531        -0.067294      0.147816     -0.316237
O       9.56808      9.81271      0.54085         0.155814     -0.173501      0.136970
O       9.71794      9.74240     13.60903        -0.218640      0.062953      0.529790
O       9.65879      9.59760      4.86922         0.313542      0.149025      0.262060
O       9.57152      9.66543      9.16524         0.168874      0.030070      1.139508
O       3.81486      1.85515      2.50917        -0.354605      0.294187      0.335376
O       3.91426      1.92033     15.99208        -0.989159      0.659081     -0.894842
O       3.82479     13.55743      2.79252         0.523682     -0.450283     -0.058910
O       3.85838     13.41809     15.91265        -0.387617      0.499203     -0.480342
O       0.03718      1.89454      2.62617        -0.323339     -0.041855      0.521549
O      15.31950      2.08151     15.76554        -0.000354      0.271407     -0.347781
O      15.30622     13.54297      2.69375         1.552960      0.400417      0.125248
O       0.01416     13.27424     15.72049        -0.055775      0.568825      0.378571
O       3.83598      2.05183      7.12397        -0.835273     -0.400794      0.439863
O       3.89967     13.39805      7.19613        -1.085019      0.558050     -0.309404
O      15.31389      2.14968      7.13220         0.348897     -0.181193     -0.576086
O      15.33921     13.67566      7.11029         0.116133     -0.182692     -0.278629
O       3.78259      1.98099     11.50239         1.075449      0.084068     -0.157443
O       3.83699     13.28750     11.32448        -1.095365      0.503715     -0.109003
O       0.01134      1.83276     11.55658         0.435050      0.284501      0.501136
O      15.34089     13.74539     11.49275         1.224324     -0.362799     -0.168699
O       3.84962      5.94310      2.64482        -0.470067     -0.250552     -0.041568
O       3.89754      5.77084     15.76802        -0.802389     -0.178892      0.592127
O       0.02785      5.58749      2.74697        -0.371194      0.535054     -0.031174
O       0.01600      5.70764     15.77601        -0.534607      0.375998     -0.234146
O       3.85928      5.68915      7.08014        -0.523915      0.390553      0.239719
O      15.30132      6.04030      7.11748         0.264704     -0.398650     -0.899096
O       3.73574      5.71718     11.45509         1.325251      0.715087     -0.190133
O       0.06142      5.82674     11.58130        -0.953190     -0.204643     -0.441005
O       3.79115      9.61207      2.66590         1.093541     -0.300560      0.249089
O       3.79832      9.55876     15.75018         0.569466      0.437656     -0.056845
O       0.00975      9.69020      2.78274        -0.500141      0.075345      0.069059
O      15.24212      9.63832     15.72651         1.307111      0.846263     -0.033417
O       3.72359      9.53642      7.11403         0.867644      0.690126     -0.714992
O      15.32786      9.79668      7.16010         0.129005      0.023942     -0.969621
O       3.81404      9.70406     11.38475        -0.577571      0.142285      0.113217
O       0.01054      9.42493     11.37116        -0.904315      0.654966      0.300675
O       7.73221      1.91112      2.67304        -1.071370      0.920313      0.132505
O       7.57062      2.01577     15.69340         0.890149     -0.521577      0.338279
O       7.66435     13.54468      2.70087        -0.340807     -0.346992      0.541099
O       7.56000     13.36001     15.62807         1.276630      0.399517      0.543959
O       7.61511      1.90946      7.09101         0.779453      0.602654      0.195194
O       7.74565     13.42234      7.13156        -0.613744      0.558381     -0.123978
O       7.70999      1.88712     11.37136        -0.463162      0.131042      0.165064
O       7.70444     13.74457     11.34109        -0.211370     -0.732958      0.430871
O       7.67640      5.81585      2.87494         0.164033     -0.066883     -0.416212
O       7.74371      5.80782     15.75444        -1.422665      0.583650      0.246695
O       7.67178      5.78067      7.03906         0.031829      0.449526      0.312187
O       7.59660      5.81096     11.46921         0.954101      0.476236      0.350478
O       7.70514      9.60843      2.71582         0.203656      0.156112     -0.218290
O       7.69051      9.63535     15.63561        -0.620609      0.364659      0.670522
O       7.68457      9.63364      6.80811        -1.106996      0.026874      0.772479
O       7.58309      9.61604     11.51057         1.595924      0.070880     -0.226837
O      11.54685      2.07548      2.61573         0.244648     -0.270880      0.421336
O      11.43522      1.98521     15.68348         0.187794      0.312458      0.025219
O      11.49116     13.61971      2.78682         0.147084     -0.386831      0.155643
O      11.51036     13.72040     15.68602        -0.124918     -0.701140      0.397507
O      11.49690      1.99688      7.10047         0.299364      0.304701      0.195587
O      11.52452     13.62601      7.06691         0.277928     -0.003543      0.118365
O      11.55374      2.19989     11.27908        -0.428030     -0.055994      0.427167
O      11.59613     13.46508     11.60567        -0.459833      0.180908     -0.845248
O      11.56365      5.83021      2.75087        -0.721022      0.300055     -0.559058
O      11.48989      5.73603     15.80106        -0.481150      0.622362     -0.111069
O      11.51812      5.95452      7.14515         0.393227     -0.106144     -0.618202
O      11.56517      5.89752     11.54282        -0.581912     -0.438360     -0.471451
O      11.57833      9.81790      2.57025        -0.093320     -0.555907      0.043458
O      11.58155      9.69437     15.79400        -1.040168      0.232411      0.739320
O      11.58146      9.81457      7.04381         0.010736     -0.968854      0.170006
O      11.51047      9.87712     11.34928         0.259875     -0.461775     -0.070241
O       2.01264      3.86995      2.72464         0.049700     -0.848062     -0.296911
O       1.91734      3.84527     15.72925         0.302112      0.150041      0.333398
O       1.88532      0.04192      2.65699        -0.201387     -0.580097      0.189214
O       1.80350     15.35404     15.73805         0.722878     -0.357069      0.400335
O      13.47742      3.94096      2.63588        -0.216921      0.258289      0.170813
O      13.36225      3.97276     15.66855         0.369105     -0.128656      0.301294
O      13.46279     15.47963      2.66947         0.145576      0.912105      0.159127
O      13.39785     15.51970     15.71028         0.634889      0.354085      0.377755
O       1.84762      3.84032      7.23395         0.248449      0.284294     -0.744387
O       1.96935      0.07470      7.09335         0.039879     -0.719311      0.334538
O      13.45395      4.12691      7.00981        -0.321795     -0.850742     -0.000161
O      13.47343     15.53629      7.06446        -0.199083     -0.206606     -0.007048
O       1.90340      3.96697     11.49437        -0.515768     -1.150861      0.213985
O       1.98409      0.03024     11.42588        -0.015846     -1.832644      0.133764
O      13.48354      4.02181     11.54069         0.436590     -0.007537      0.000116
O      13.37665      0.20065     11.50412         0.051937     -0.767343     -0.174824
O       1.76177      7.74595      2.67820         0.487402     -0.872397      0.014091
O       1.94286      7.78205     15.72022        -0.199493     -1.537482      0.853624
O      13.58347      7.80645      2.69609        -0.514268      0.659567     -0.227568
O      13.30893      7.77218     15.80924         0.391442      0.122247     -0.222249
O       1.83653      7.63544      7.19020         0.469875      0.803687     -1.113626
O      13.47729      7.82060      6.87220        -0.544044      1.293227      0.185819
O       1.96715      7.71742     11.52319         0.044255      0.030998     -0.287250
O      13.41509      7.86382     11.43541        -0.058856      0.234425     -0.169676
O       2.09487     11.57624      2.79628        -0.696352      0.297695      0.106517
O       1.96727     11.47123     15.76474        -0.241100      0.166163      0.461182
O      13.37450     11.73512      2.72308         0.135660     -1.250064      0.052744
O      13.42212     11.67855     15.73015        -0.350238      0.004503      0.097159
O       1.82472     11.47903      7.06828         0.649563     -0.157181     -0.442064
O      13.33549     11.67632      7.21592         0.976969      0.650084     -1.106116
O       1.78229     11.49434     11.25761        -0.173973      0.794925      0.372252
O      13.53871     11.66101     11.43580         0.550068     -0.197148      0.107158
O       5.75885      3.80907      2.80768        -0.221997      0.976301     -0.596204
O       5.85397      3.92343     15.73656        -0.676515     -0.371684      0.540491
O       5.75954      0.13107      2.81623        -0.183226     -1.167312      0.258231
O       5.67600     15.38041     15.62547         0.248000      0.283185      0.141185
O       5.80371      3.83798      7.02005         0.128900      1.517618      0.492001
O       5.78073     15.43178      7.15827        -0.474025     -0.782087      0.225711
O       5.78725      3.89886     11.36720        -0.122300     -0.394402      0.530853
O       5.69420     15.38777     11.49790        -0.270204      0.470879     -0.516495
O       5.82838      7.76440      2.79797        -0.561627     -0.886184     -0.149977
O       5.67483      7.72118     15.76408         0.621164      0.745443      0.109589
O       5.76481      7.67982      7.08069        -0.359738      0.922340     -0.237091
O       5.76197      7.86682     11.48337        -0.543247     -2.091380      0.087382
O       5.86785     11.49170      2.74187        -1.233774      1.358850     -0.164057
O       5.67099     11.57124     15.69916        -0.114666     -0.631641      0.275266
O       5.79732     11.56389      7.15338        -0.794024     -0.897750     -0.554664
O       5.87256     11.55992     11.25254         0.057617      1.222379      0.698814
O       9.62463      3.92802      2.78035        -0.409240      0.429574     -0.571049
O       9.44850      3.91840     15.74929         0.532562     -0.759855      0.121842
O       9.55530     15.47294      2.83594         0.395600     -0.025558     -0.171742
O       9.46929     15.40036     15.83358         0.127057      0.659050     -0.678137
O       9.58489      3.99008      7.04244         0.029015     -0.022883      0.477587
O       9.57475     15.47614      7.04066        -0.001383     -0.070690      0.272257
O       9.50857      4.00492     11.34660         0.076766     -1.745160      0.535527
O       9.75664     15.43077     11.52522        -0.079457      0.658431     -0.377962
O       9.69762      7.74467      2.67292        -0.016456      0.537498     -0.076699
O       9.60375      7.79857     15.74147         0.351049     -0.557973      0.552283
O       9.72748      7.82279      7.03394        -0.608908     -0.527820      0.453775
O       9.58145      7.81537     11.45416         0.049381      0.145495      0.048835
O       9.54553     11.56101      2.89639         0.723295      0.384759     -0.899873
O       9.67500     11.58813     15.74451        -0.096583      0.661802      0.788427
O       9.73141     11.58485      6.98312        -0.552941      0.763078      0.221552
O       9.53450     11.59137     11.39613        -0.263617      0.854174     -0.016963
