  # total energy = -7882.24584690 
CRSYTAL
PRIMVEC
    15.3600000000000000    0.0000000000000000    0.0000000000000000
     0.0000000000000000   15.3600000000000000    0.0000000000000000
     0.2400000000000000    0.0000000000000000    17.440000000000000
PRESSURE
0.404223 0.450374 -3.63039 -0.034801 -0.709507 0.030428
PRIMCOORD
320 1
Pb       3.89128      3.85478      4.32065         0.231831     -0.005135     -0.256819
Pb       4.02405      3.80115     17.39031        -0.099856     -0.016139      0.047805
Pb       3.81641     15.27342      4.34166         0.190287      0.078507     -0.076340
Pb       4.09419      0.01023     17.42497        -0.120578      0.127437     -0.224325
Pb       0.06396      3.77271      4.30285        -0.051724      0.253499     -0.059638
Pb      15.53547      3.81192     17.39370        -0.191855     -0.537546     -0.351138
Pb      15.33103     15.24670      4.28658         0.320444      0.281798      0.273162
Pb      15.51195     15.33979     17.38095        -0.244025      0.662740     -0.216791
Pb       3.92433      3.87078      8.63571         0.134429     -0.781465      0.258723
Pb       3.85857     15.32870      8.72957         0.415802     -0.090691     -0.683938
Pb       0.14337      3.89909      8.71063        -0.149473     -0.637191     -0.401876
Pb      15.46758      0.01962      8.72296        -0.259557      0.115770      0.063878
Pb       3.95017      3.85042     13.05153         0.305344      0.211265     -0.500243
Pb       4.02224     15.29090     13.10625        -0.478634     -0.139691     -0.164987
Pb       0.18565      3.70386     13.12439        -0.011979      0.021120     -0.655756
Pb      15.47821     15.24032     13.09929         0.209583      0.388425     -0.627237
Pb       3.84687      7.58661      4.27207         0.167024      0.014407     -0.179621
Pb       4.12006      7.52178     17.40552        -0.177031      0.451934      0.243499
Pb      15.35887      7.65533      4.33750        -0.121842     -0.072393     -0.441842
Pb      15.59661      7.59582     17.27752        -0.392647      0.343274      0.396650
Pb       3.91773      7.73928      8.67746         0.132222      0.390317      0.077932
Pb       0.20144      7.70427      8.79029        -0.451155      0.132151     -0.394825
Pb       4.07532      7.68880     12.96270         0.386416     -0.626396      0.391133
Pb      15.40483      7.67001     13.16340        -0.004618     -0.047879     -0.379217
Pb       3.77528     11.49417      4.24767         0.058982      0.509546     -0.003232
Pb       3.91858     11.46050      0.13920        -0.412333      0.190644     -0.923357
Pb       0.07018     11.50844      4.17980        -0.003907     -0.315458      0.218430
Pb      15.58357     11.45717     17.37714        -0.281686      0.092122     -0.120475
Pb       3.92323     11.51613      8.67743        -0.276686      0.300115     -0.457246
Pb       0.14844     11.42084      8.66895        -0.023565      0.328998     -0.039667
Pb       3.88467     11.42487     13.16972         0.324137      0.696080     -0.155989
Pb      15.36330     11.50465     13.12214         0.360114     -0.161419     -0.175092
Pb       7.68210      3.71543      4.42690        -0.148129      0.708240     -0.142048
Pb       7.72681      3.89287      0.04201        -0.661006     -0.216390     -0.564645
Pb       7.74979      0.02765      4.35480        -0.740936     -0.126219      0.404289
Pb       8.02743      0.07471     17.38362        -0.605051      0.067417     -0.034579
Pb       7.74234      3.87086      8.59813         0.120456     -0.639095      0.788411
Pb       7.84311     15.21083      8.58716        -0.590518      0.831300      0.216853
Pb       7.72664      3.79309     12.96541        -0.054381     -0.037823     -0.487585
Pb       7.66798      0.11608     12.91383         0.306173     -0.240150      0.442934
Pb       7.77012      7.68321      4.36427         0.099545     -0.645604     -0.417758
Pb       7.71524      7.62993      0.02990        -0.297378     -0.072297     -0.520447
Pb       7.78578      7.64999      8.73243         0.354826      0.600297     -0.058576
Pb       7.83831      7.75235     13.00181         0.229498     -0.368401      0.157494
Pb       7.78830     11.41825      4.23909        -0.120908      0.860396      0.463790
Pb       7.62545     11.56886      0.06323         0.124682      0.409329     -0.452489
Pb       7.69952     11.49316      8.64922         0.518544     -0.159589     -0.394753
Pb       7.80357     11.53248     13.07625        -0.063171      0.287158     -0.042777
Pb      11.59746      3.73633      4.45358        -0.336600      0.164489     -0.051963
Pb      11.56482      3.79538     17.36619         1.098194     -0.046454      0.082270
Pb      11.61798     15.33699      4.38854         0.207943      0.236931      0.109385
Pb      11.74992      0.09398     17.32070         0.222264      0.024698      0.522258
Pb      11.67922      3.87942      8.71270        -0.020193     -0.514291      0.072802
Pb      11.62731     15.30347      8.68538         0.138484      0.318796      0.262601
Pb      11.57381      3.88778     13.04951         0.161054     -0.118683     -0.955767
Pb      11.55982     15.17809     13.06495         0.194337      0.446234     -0.696399
Pb      11.63855      7.64302      4.49932        -0.443033      0.247379     -0.678182
Pb      11.75715      7.61846     17.36735         0.215226      0.230877     -0.302939
Pb      11.71024      7.72339      8.70157        -0.176029     -0.065797     -0.284290
Pb      11.66309      7.70835     13.10794        -0.354528      0.150695     -0.562695
Pb      11.60811     11.50507      4.23337         0.103279     -0.638652      0.424400
Pb      11.59496     11.55037     17.42362         0.462719      0.043836     -0.178311
Pb      11.66981     11.58348      8.60953        -0.297374     -0.218221     -0.181195
Pb      11.57040     11.51324     13.04115         0.036853     -0.191792     -0.120301
Ti       1.92740      1.88718      2.32080        -0.125615      0.241885     -0.999036
Ti       2.13803      1.89141     15.36720        -1.114800     -0.503059     -0.865263
Ti       1.92127     13.44927      2.15748         0.705816     -0.262106      1.819915
Ti       2.11439     13.45121     15.43360         0.300571      0.355456     -0.269442
Ti      13.43703      1.90776      2.37016        -0.332995     -0.190393     -2.043070
Ti      13.56436      1.98585     15.21697         1.579285     -0.665356      1.593004
Ti      13.46391     13.40739      2.30165         0.433415      0.094568     -1.936349
Ti      13.63326     13.46282     15.42368        -0.476078     -0.154068     -0.059485
Ti       2.02426      1.83084      6.56199        -0.221226      0.526510     -0.913038
Ti       1.96575     13.38250      6.58096         0.878855      0.549438     -0.584809
Ti      13.56247      1.82082      6.68584         0.187961      0.621518     -0.407154
Ti      13.58212     13.38300      6.65258        -0.229815      0.194470     -1.132339
Ti       2.00773      1.90859     11.03766        -0.590359     -0.726619      0.920166
Ti       2.02682     13.37779     11.11371        -0.167412      0.274750      0.500209
Ti      13.55466      1.87860     11.09652        -0.148097     -0.307937     -0.172737
Ti      13.50032     13.36540     11.04537         0.992972      0.783592     -0.336937
Ti       1.93496      5.74492      2.27900        -0.252977     -0.388647      0.028930
Ti       2.13921      5.79183     15.30784         0.219104     -0.663325      1.412677
Ti      13.34672      5.73609      2.36055         1.226799      0.106220     -1.506220
Ti      13.63698      5.72675     15.33328        -0.062983      0.046145      0.458121
Ti       2.03916      5.77473      6.70240        -0.586190     -0.769762     -0.777938
Ti      13.60406      5.73438      6.67983        -0.005491     -0.452803     -0.745214
Ti       2.02176      5.79179     11.01955         1.186111     -0.851760      2.251758
Ti      13.56880      5.75500     10.97687         0.366641     -0.137405      0.311830
Ti       1.92476      9.49684      2.14695        -0.474639      0.281584      0.533825
Ti       2.22081      9.61513     15.40785        -0.491702     -0.244602      0.109275
Ti      13.45804      9.51220      2.18218        -0.357437      0.752337     -0.452454
Ti      13.60783      9.64230     15.47549        -0.247552     -0.190399      0.121683
Ti       2.08330      9.57782      6.59908        -0.472240      0.564355     -0.068366
Ti      13.59725      9.53868      6.59748        -0.229457      0.474412     -0.696122
Ti       2.07371      9.51790     11.17254        -0.252762      1.297956     -1.407263
Ti      13.56549      9.58151     11.10619        -0.309141     -0.652843      0.197800
Ti       5.78194      1.91732      2.30197        -0.113158      0.430316     -1.011376
Ti       5.91733      1.97695     15.39600         0.272500     -0.748613     -1.062629
Ti       5.83107     13.49622      2.34899        -0.087375      0.116614      0.550987
Ti       5.88844     13.48903     15.49715         0.976917      0.046250     -1.560441
Ti       5.85435      1.86293      6.69892        -0.384760     -0.402088     -0.008986
Ti       5.83684     13.36830      6.51325        -0.763587      1.184466      0.067384
Ti       5.70616      1.83358     10.96397         2.726528      1.365882     -2.243373
Ti       5.82629     13.40110     10.96520        -0.492066      0.232963     -0.114423
Ti       5.81941      5.77389      2.31521         0.227132     -0.359902     -1.115613
Ti       5.98672      5.80474     15.46421         0.088565     -0.574241     -0.393989
Ti       5.85317      5.76276      6.77143         0.280571     -0.602613     -1.643947
Ti       5.97733      5.76779     10.92405        -1.001042     -0.828997      0.008244
Ti       5.72054      9.64196      2.35506         0.329670     -0.462727     -0.393303
Ti       6.04215      9.64025     15.45937        -1.126268     -0.289749     -1.448201
Ti       5.97042      9.54594      6.60708        -0.576358      0.629512      0.488891
Ti       5.91582      9.65736     11.01394         0.644005     -0.448475     -0.875962
Ti       9.57485      1.95609      2.48213         1.081919      0.311560     -1.899982
Ti       9.73503      2.02024     15.32840        -0.296597     -1.354097     -1.523331
Ti       9.69923     13.55739      2.41853        -0.749286     -0.976472     -0.604568
Ti       9.75345     13.52006     15.38023        -0.120502     -0.425351     -1.351755
Ti       9.70506      1.93784      6.74273         0.244593      0.088158     -1.015510
Ti       9.68872     13.42447      6.57124         0.476495     -0.362970      1.579242
Ti       9.72602      1.89021     10.98194         0.539518      0.092392     -0.858325
Ti       9.61613     13.46028     10.91128         1.713945     -0.457453      0.148546
Ti       9.66469      5.74095      2.29753        -0.738738      0.270359      1.031036
Ti       9.80182      5.84135     15.29044        -0.269877      0.225617     -0.954954
Ti       9.73610      5.70769      6.70984         0.668915      0.443602     -0.242528
Ti       9.78827      5.72573     10.92245         0.545642      0.153620     -0.016487
Ti       9.59193      9.61317      2.35975         2.290036     -0.407712      0.260669
Ti       9.72622      9.68710     15.50957         1.240898     -0.854733     -1.065389
Ti       9.71104      9.56289      6.61170         0.654776      0.446820     -0.193600
Ti       9.68572      9.61639     10.97128         0.837523     -0.901753     -1.107487
O       1.85466      1.98833      0.46177         0.201393     -0.261373      2.069235
O       2.02469      1.90085     13.53725         0.495298      0.066360      0.570666
O       2.01043     13.52506      0.44176        -0.398385     -0.229090     -0.395534
O       2.15189     13.44755     13.63321        -0.072313     -0.087396      0.759323
O      13.39215      1.93805      0.49147         0.199206      0.105787      2.086196
O      13.72558      2.05167     13.48668        -0.524761     -0.352168     -0.706645
O      13.54944     13.48484      0.42214        -0.604622     -0.341899      2.149066
O      13.59576     13.41065     13.60369        -0.009854      0.040857      0.858188
O       1.93235      1.92494      4.73612         0.325443      0.083781      0.828662
O       1.96807     13.36683      4.77957         0.118488     -0.173936      0.693626
O      13.56293      1.81419      4.86104        -0.197338      0.061600      0.879902
O      13.60596     13.43706      4.81168        -0.155975     -0.051880      0.933960
O       1.93180      1.75137      9.29386         0.273856      0.124188     -0.491223
O       2.13037     13.31621      9.34719        -0.002166      0.039112     -0.122105
O      13.65008      1.74457      9.32652         0.007141      0.292254     -0.509302
O      13.49959     13.32717      9.27493         0.243262     -0.033672     -0.297006
O       2.04087      5.75066      0.52586        -0.327872     -0.265587     -0.543687
O       2.12803      5.59038     13.60186         0.064134      0.498560     -0.917314
O      13.28002      5.71542      0.50162         0.235664      0.076770      1.747048
O      13.65373      5.78422     13.58361        -0.021235     -0.138799     -0.188893
O       1.97555      5.70129      4.90616         0.339174      0.465151      0.801990
O      13.57659      5.81838      4.84737         0.002446     -0.260279      0.401613
O       2.18790      5.68213      9.31797        -0.414255      0.572206     -1.873255
O      13.74594      5.90268      9.18208        -0.584238     -0.392589      0.591470
O       1.93832      9.54703      0.37650         0.086462      0.183281      0.383901
O       2.26682      9.54644     13.58551        -0.053274      0.159005      1.259677
O      13.47836      9.58132      0.35622        -0.192401     -0.149328      1.057282
O      13.54792      9.62769     13.70268         0.142958     -0.320831     -0.576780
O       1.94238      9.54792      4.81140         0.238646     -0.040582      1.057099
O      13.67108      9.66055      4.79615        -0.166342     -0.708489      1.363411
O       2.16271      9.54913      9.27249        -0.413117      0.095979      1.925552
O      13.63960      9.47050      9.33829        -0.121310      0.214863     -0.190091
O       5.81151      1.93726      0.46385         0.000346     -0.166938      1.377615
O       5.95695      1.82840     13.51300         0.004521      0.435026      1.246966
O       5.81224     13.62417      0.56968         0.015614     -0.699624     -0.103758
O       5.95959     13.44722     13.67333        -0.072926      0.025165      0.596489
O       5.93245      1.92628      4.89083        -0.033308      0.190952      0.452551
O       5.83860     13.45853      4.73680        -0.097847     -0.193452      0.802866
O       5.80193      1.74920      9.07834        -0.371780      0.379826      1.548809
O       5.62400     13.46880      9.18196         0.806444     -0.314945      1.064556
O       5.78217      5.81729      0.43607         0.149903     -0.186463      1.191152
O       5.91051      5.74141     13.70707         0.300332     -0.126456     -0.223169
O       5.86392      5.70345      4.93152        -0.050614      0.290878      1.404096
O       5.87162      5.66397      9.10244         0.039072      0.496346      0.939665
O       5.70530      9.68467      0.54107         0.429897     -0.071321      1.201401
O       6.06158      9.62649     13.61101        -0.140080     -0.001198      1.023488
O       6.05379      9.63061      4.85753        -0.374190     -0.431143     -0.356958
O       6.05892      9.61586      9.20717        -0.707049     -0.016224      0.635788
O       9.67766      1.91715      0.57985        -0.466401      0.318044      1.137168
O       9.60270      1.86128     13.50008         0.449331      0.427977      1.395962
O       9.75359     13.52122      0.63045        -0.537210      0.012082      0.596795
O       9.76095     13.40739     13.50657         0.094835      0.286255      1.982033
O       9.57338      2.03328      4.88390         0.383984     -0.255505      0.958618
O       9.76458     13.43061      4.83171        -0.327482      0.073285      0.052251
O      10.00279      1.80763      9.20066        -1.046140      0.354633      0.755798
O       9.67449     13.53028      9.12567         0.137673     -0.504789      0.191364
O       9.75158      5.70315      0.48287        -0.484391      0.106450      0.824711
O       9.78610      5.83259     13.45824         0.029326     -0.401246      1.948452
O       9.76546      5.62698      4.92964        -0.187436      0.246623      0.775501
O      10.03331      5.69662      9.12361        -0.808834      0.606638      0.609561
O       9.58591      9.65327      0.59843        -0.205207     -0.007144     -0.991436
O       9.71687      9.55244     13.74044        -0.116162      0.579174     -0.405315
O       9.72546      9.61701      4.79815        -0.365452     -0.013461      0.842263
O       9.74233      9.50470      9.14549         0.055441      0.235393      1.575038
O       3.94776      1.92047      2.64512        -1.014444     -0.000316      0.103903
O       4.06400      1.85336     15.74087         0.208074     -0.331824      0.175522
O       3.92465     13.34848      2.66275        -0.882273      0.370593     -0.142887
O       4.04783     13.43459     15.88275        -0.187920      0.438281     -0.022209
O      15.35591      1.77176      2.74364         0.681312      0.944427     -0.514366
O      15.55806      1.92710     15.61926        -0.320782      0.216158      0.536482
O       0.05718     13.39949      2.70889        -0.294295      0.406070     -0.747309
O      15.57162     13.43434     15.86645        -0.248718     -0.173119     -0.628450
O       3.90316      1.82204      6.92345         0.525503      0.409783      0.233728
O       3.90193     13.35707      7.00293         0.578752      0.074472     -0.209904
O       0.15524      1.81093      7.04232        -0.349086      0.046187      0.232418
O       0.14125     13.36347      7.01554        -0.596268      0.052563      0.373469
O       3.97723      1.83886     11.30318        -2.070281      0.232059      0.514520
O       3.99188     13.36857     11.51241         0.529747     -0.214393     -0.111229
O      15.47285      1.87027     11.40910         0.708331      0.016310      0.415137
O      15.51510     13.34292     11.38798        -0.302142      0.081131      0.483191
O       3.95096      5.79623      2.73854        -0.320864     -0.385374      0.199434
O       4.01190      5.88366     15.77575         0.334523     -0.364741     -0.106629
O       0.04440      5.72374      2.69393        -0.100399      0.399562     -0.215392
O       0.26641      5.74723     15.77016        -0.527081     -0.701018     -0.071200
O       3.94447      5.65298      7.10764         0.032189      1.158072     -0.271849
O       0.17000      5.84255      7.14341         0.749120     -0.518600      0.010407
O       4.05989      5.75699     11.43886        -0.168177      0.102842     -0.026095
O       0.23305      5.90222     11.38993        -1.142789      0.006590     -0.020533
O       3.82470      9.62969      2.76380         1.106254     -0.241034     -0.506149
O       4.14476      9.50586     15.89093        -0.875669      0.155622     -0.504891
O       0.07156      9.41661      2.59596         0.333637      0.412065     -0.231727
O      15.56288      9.68270     15.74447         0.813288     -0.128857     -0.093396
O       4.02685      9.49707      7.00125        -0.098511      0.394006     -0.168182
O       0.14766      9.59414      7.11734        -0.297534     -0.096524     -0.197672
O       4.09727      9.48376     11.37584        -0.983033      0.633899      0.229143
O      15.48913      9.49367     11.64247         0.221309      0.114860     -0.645270
O       7.70032      1.94359      2.72726        -0.120474      0.018903      0.026193
O       7.83032      2.00187     15.75698         1.136954     -0.193792      0.213014
O       7.76192     13.37823      2.73725         0.302027      0.269098     -0.287710
O       7.88446     13.41850     15.83868         0.552601      0.255549      0.273453
O       7.85111      2.05137      7.12712        -0.603344     -0.630579     -0.306751
O       7.78231     13.44816      7.05853         0.305541     -0.421921     -0.654016
O       7.79202      1.91226     11.25629         0.597493     -0.369680      0.270545
O       7.85129     13.43715     11.32975        -1.633940      0.295394     -0.110781
O       7.74719      5.72020      2.71918         0.750172      0.098407     -0.415674
O       7.92744      5.71082     15.79023         0.717755     -0.206905      0.218764
O       7.89013      5.76674      7.24340        -0.704112     -0.352181     -0.886715
O       7.90005      5.66692     11.28263        -0.993156      0.072412     -0.124013
O       7.80747      9.63558      2.74706        -2.132722     -0.071079     -0.265756
O       7.85617      9.56044     15.83585         0.284387      0.817724      0.838611
O       7.83097      9.51891      7.20401        -0.198520      0.771243     -0.780401
O       7.79011      9.49135     11.37186         1.229481      0.386632      0.268515
O      11.52250      1.83117      2.85966         0.769071      0.450121     -0.171670
O      11.74621      1.83735     15.61653        -1.374533      0.688020     -0.064758
O      11.59430     13.47288      2.84322         0.356097      0.085895     -0.600624
O      11.67110     13.52387     15.86617         0.029155     -0.572705     -0.666514
O      11.66415      1.96153      7.11589         0.562778     -0.485521     -0.669767
O      11.68989     13.45587      7.04824        -1.065121     -0.078304     -0.246180
O      11.67958      1.96036     11.42653        -0.158159     -0.120448      0.565258
O      11.68180     13.40904     11.37631        -0.944488     -0.690159      0.386710
O      11.52953      5.77941      2.83482         0.273809     -0.177462     -0.269760
O      11.73635      5.72279     15.70927        -0.805722      0.367831     -0.156280
O      11.77079      5.68923      7.08367        -1.055601      0.416304     -0.228130
O      11.67946      5.68607     11.41104         0.519502      0.119971     -0.007295
O      11.60228      9.57556      2.69437         0.189497     -0.064604     -0.164116
O      11.67965      9.63551     15.82388        -0.182064     -0.103303      0.306489
O      11.67091      9.53292      6.95250         0.401781     -0.085900      0.211478
O      11.63259      9.62677     11.53491        -0.054999     -0.098072     -0.350619
O       2.02471      3.88043      2.68924        -0.180324     -1.423571      0.116815
O       2.29140      3.68237     15.76221        -0.495039      2.512931      0.047846
O       2.01177     15.34336      2.70801         0.045283     -0.079438     -0.532269
O       2.08884      0.00431     15.87175         0.393737     -0.381510     -0.303795
O      13.50317      3.82703      2.70438        -0.240723     -0.161219      0.156996
O      13.61632      3.82495     15.72852         0.187697      0.175682     -0.039694
O      13.46730     15.33427      2.67899         0.001854     -0.486415      0.057068
O      13.60993      0.01501     15.78718         0.522091     -0.093900     -0.579249
O       2.04001      3.78635      7.10526        -0.253218      0.562185     -0.152575
O       2.12671     15.30529      6.84850        -0.589985     -0.226781      0.485919
O      13.64620      3.78968      6.99574         0.477955     -0.185064      0.275368
O      13.60313     15.28045      7.11859        -0.022368      0.438497     -0.257764
O       2.04906      3.81209     11.38354         0.149917      0.179971     -0.001146
O       2.03986     15.27929     11.57479         0.234000      0.233858     -0.536061
O      13.68414      3.89989     11.36642        -0.008995     -0.210772     -0.066160
O      13.57591     15.28125     11.43952         0.109745      0.210448      0.374213
O       2.17548      7.60285      2.51840        -0.597643      1.142893      0.607269
O       2.00248      7.68642     15.77064         0.730652      0.239506     -0.636904
O      13.46463      7.72103      2.70603        -0.026357     -1.520949      0.057449
O      13.66610      7.64084     15.75795        -0.011014     -0.085827      0.056665
O       2.05168      7.75621      7.15502         0.323855     -1.322471     -0.388657
O      13.63096      7.59008      6.93197        -0.102641      2.001335      0.269250
O       2.12033      7.72359     11.54145         0.136480     -0.998775     -0.210834
O      13.44894      7.63475     11.47215         0.608764      0.438097      0.276696
O       1.91368     11.49067      2.57645         0.245337     -0.166385     -0.342476
O       2.20751     11.58016     15.81586         0.061864     -1.392656     -0.152607
O      13.52528     11.45468      2.60776         0.038115      0.711153     -0.134544
O      13.57646     11.51223     15.72148         0.219889      1.170827      0.465501
O       2.00939     11.51384      7.12773         0.411982     -1.058698     -0.329044
O      13.48927     11.50806      6.97626         0.498017     -0.721284      0.485490
O       2.04531     11.43722     11.67971         0.372232     -0.248197     -0.694181
O      13.64217     11.44870     11.45864        -0.252285      0.174025      0.161670
O       5.81716      3.91926      2.68070         0.032289     -1.454748      0.062097
O       5.89744      3.81758     15.81057         0.101768      0.498786     -0.091532
O       5.82048      0.01314      2.84318         0.183116      0.108478     -0.676651
O       5.98690     15.35599     15.75545         0.090824      0.614944      0.364540
O       5.80887      3.80548      7.06375         0.524247      0.356650      0.092292
O       5.93096     15.32639      6.93877        -0.017740     -0.244599      0.041890
O       5.86630      3.76139     11.44117         0.129089      0.793078     -0.253260
O       5.78453      0.00195     11.37730         0.653275     -1.436817      0.141880
O       5.88162      7.63958      2.67428        -0.156592      1.770558      0.326377
O       6.18338      7.64444     15.78576        -0.727651      0.854721      0.339857
O       6.01023      7.66418      7.00056        -0.485029     -0.370777      0.237930
O       5.99505      7.62025     11.41910        -0.111061     -0.048020     -0.374881
O       5.77768     11.53461      2.79583         0.405153     -0.950614     -0.737938
O       5.89897     11.55032     15.80545         0.565736     -0.669277      0.623733
O       5.87963     11.54690      6.93766         0.468099     -1.207849      0.390021
O       6.03889     11.51741     11.40455        -0.396100      0.166813     -0.266688
O       9.70255      3.81327      2.82242         0.031725      0.723973     -0.565810
O       9.80401      3.85315     15.71612         0.241424      0.188649     -0.071944
O       9.60741      0.08339      2.88135         0.209166     -1.193334     -0.364872
O       9.81566      0.07128     15.82009        -0.460208     -0.292621     -0.436661
O       9.79496      3.81847      7.15070         0.002481      0.511281     -0.084133
O       9.69780      0.05214      7.05341         0.083747     -1.037491     -0.497084
O       9.85810      3.83483     11.27708        -0.518623     -0.638624      0.446199
O       9.89980     15.26806     11.30206        -0.550873      1.060419      0.342567
O       9.64264      7.66245      2.80044         0.075734     -0.522679     -0.483483
O       9.75462      7.75492     15.74180         0.236013     -1.697795      0.530552
O       9.70972      7.72284      6.88711         0.316046     -1.383009      0.387384
O       9.81040      7.63018     11.38633        -0.196769      0.660427     -0.169184
O       9.78887     11.53051      2.73925        -0.536772      0.403407     -0.270052
O       9.71102     11.57669     15.81034         0.369774      0.358088      0.396061
O       9.78100     11.48844      7.06560        -0.434827      0.743649     -0.335848
O       9.72286     11.47377     11.35388        -0.192809      0.260896     -0.012713
