  # total energy = -7884.00860452 
CRSYTAL
PRIMVEC
    15.3600000000000000    0.2300000000000000    0.0000000000000000
     0.0000000000000000   15.3600000000000000    0.0000000000000000
     0.0000000000000000    0.0000000000000000    17.440000000000000
PRESSURE
1.88664 1.86019 -0.079444 0.12768 0.364178 -1.59123
PRIMCOORD
320 1
Pb       3.75547      3.84196      4.27347         0.193150      0.031251      0.545215
Pb       3.81069      3.93019     17.35613        -0.061475      0.116437      0.061249
Pb       3.69214      0.08299      4.35117         0.619408     -0.376833      0.431209
Pb       3.73537     15.40232     17.24894         0.443386     -0.196030      0.303670
Pb      15.34831      4.00632      4.35906         0.242731      0.372057     -0.398875
Pb      15.31904      4.03664     17.31559        -0.024853      0.303785      0.095183
Pb      15.31979      0.35159      4.29562        -0.008388     -0.503766      0.278255
Pb      15.34624     15.52806     17.31244        -0.076736      0.104627      0.390385
Pb       3.80214      4.02649      8.69701        -0.062800     -0.129792      0.073207
Pb       3.71166      0.10474      8.76852         0.247822     -0.461792      0.111317
Pb       0.01153      3.96816      8.85641         0.030414      0.169353     -0.353569
Pb      15.27602      0.28547      8.74475         0.280884     -0.317545     -0.080542
Pb       3.93067      3.98071     13.08124         0.055044     -0.446186     -0.313083
Pb       3.82859      0.11998     13.02530         0.571162     -0.398649     -0.027995
Pb      15.32641      4.06554     13.04386        -0.122536      0.524526     -0.301254
Pb      15.29171     15.56974     13.04435         0.473316     -0.300176     -0.101003
Pb       3.87064      7.71007      4.26056        -0.112317      0.356816      0.393493
Pb       3.83648      7.71828      0.02124        -0.385954     -0.175463     -0.346121
Pb      15.29571      7.76272      4.24337         0.302064      0.302348      0.259837
Pb       0.04046      7.53869     17.37054         0.162579      0.197629      0.373018
Pb       3.79377      7.82130      8.55946        -0.406465     -0.485426      0.589542
Pb      15.23704      8.04326      8.55442         0.168050     -0.561145      0.742186
Pb       3.91569      7.79901     13.01084        -0.180764      0.030180      0.001453
Pb      15.32857      7.94370     13.04115        -0.291476     -0.177892      0.093163
Pb       3.86237     11.53563      4.33897        -0.139599      0.239640      0.106838
Pb       3.90870     11.50947     17.38818        -0.601173      0.373295      0.427916
Pb       0.00382     11.44956      4.28432         0.033756      0.420728      0.200862
Pb       0.09945     11.45758     17.36087        -0.451873      0.111581      0.707254
Pb       3.71161     11.53796      8.65422         0.041688      0.580802     -0.056578
Pb      15.22309     11.76078      8.56636         0.354018      0.163899      0.184499
Pb       3.91672     11.53458     13.02831         0.632439      0.071252      0.099515
Pb      15.29147     11.72562     12.97693        -0.169873     -0.114142      0.584204
Pb       7.58994      3.80216      4.33547         0.154728      0.391877      0.275881
Pb       7.59130      3.97156      0.02936        -0.224437     -0.086842     -0.058350
Pb       7.53359      0.18277      4.36535         0.146665     -0.589154     -0.156360
Pb       7.63238     15.42911     17.40585        -0.101199     -0.099857     -0.230792
Pb       7.75662      3.93508      8.68574        -0.260511      0.073560     -0.554888
Pb       7.75619      0.19206      8.74856        -0.537143     -0.401794     -0.417079
Pb       7.73607      3.88672     13.02789        -0.152965      0.091037      0.052467
Pb       7.69225     15.34387     13.10871        -0.659753      0.111548     -0.139962
Pb       7.57121      7.73782      4.31531         0.600848      0.304565      0.169440
Pb       7.72322      7.72291      0.11826         0.177672     -0.246500      0.117805
Pb       7.63363      7.92005      8.55620         0.479565     -0.253460      0.192919
Pb       7.62826      7.74037     13.03257         0.189037      0.053199      0.076673
Pb       7.63715     11.72188      4.40799         0.120769     -0.289887     -0.214044
Pb       7.65505     11.60960      0.04630         0.333288      0.138755      0.465135
Pb       7.62413     11.68613      8.61583         0.490033     -0.153046      0.480962
Pb       7.68213     11.49427     13.02703        -0.033560      0.426863     -0.019031
Pb      11.56130      3.92269      4.22792        -0.388932      0.340850      0.474770
Pb      11.38196      3.86858     17.33533         0.686473      0.488040      0.028176
Pb      11.46638      0.21338      4.36250         0.219308     -0.451479      0.238687
Pb      11.44354     15.41683     17.34991         0.235108     -0.017952      0.365157
Pb      11.51948      3.97276      8.72168         0.047633      0.558631     -0.036755
Pb      11.58475      0.20489      8.71236        -0.127824     -0.364243     -0.150205
Pb      11.43366      3.80973     13.05034         0.426606      0.643593      0.215470
Pb      11.49625     15.41638     13.08046        -0.326909      0.184734      0.216936
Pb      11.59273      7.75625      4.26416        -0.570406      0.326892      0.228555
Pb      11.52465      7.73533      0.01376         0.029609      0.029819      0.032015
Pb      11.48386      7.89602      8.53287         0.282039      0.059001      0.493715
Pb      11.36851      7.74765     13.08677         0.747536      0.137182      0.032515
Pb      11.52471     11.80231      4.23728         0.070074     -0.750536      0.401360
Pb      11.54340     11.48253      0.04039        -0.273774      0.641091      0.570765
Pb      11.48297     11.65550      8.67826        -0.423930     -0.059528     -0.344138
Pb      11.50137     11.55327     13.06594        -0.011446     -0.032587      0.032566
Ti       1.96679      1.98750      2.28304        -0.723575      0.503960      0.063236
Ti       1.89123      1.94114     15.26833         0.415017      0.017915      0.419401
Ti       1.92580     13.51009      2.40908        -0.067338     -0.396136     -0.292727
Ti       1.82572     13.41503     15.37158         1.156005      0.498070     -0.417173
Ti      13.43430      2.08832      2.28412         0.449021     -0.111493     -0.691491
Ti      13.42170      2.08242     15.36954        -0.140471      0.764726     -1.104885
Ti      13.50213     13.65299      2.35805        -0.361699      0.097912     -0.931774
Ti      13.33156     13.55568     15.46502         0.534610      0.601557      0.646223
Ti       1.86217      1.96339      6.78267         0.031118      0.925555     -0.204100
Ti       1.91471     13.50649      6.68514        -0.469029     -0.613568      0.147957
Ti      13.42163      2.13315      6.74477         0.140500      0.103238      0.761966
Ti      13.36064     13.62881      6.70392         0.357393      0.426796     -0.787723
Ti       1.88697      1.92722     11.15261         0.825416     -0.121067     -0.928647
Ti       1.97490     13.33922     11.19014        -0.197577      2.206230     -2.218079
Ti      13.43313      2.06283     11.14312        -0.441862      0.996406     -1.113903
Ti      13.40884     13.60298     11.16447         0.140236     -0.859515     -1.986429
Ti       1.96616      5.86490      2.34706        -1.710408     -0.743199     -0.959672
Ti       1.83976      5.77947     15.22984         0.659392      0.604921      0.858770
Ti      13.46045      5.92806      2.26423         0.314830     -0.458617     -0.886998
Ti      13.40070      5.94248     15.34016         0.278548      0.011884      0.294910
Ti       1.83515      5.79311      6.67955         0.412655      0.041760     -0.237330
Ti      13.40244      5.93192      6.61255         0.395264      0.265199      0.612867
Ti       2.01042      5.80929     11.12592        -0.978786     -0.581638     -1.228041
Ti      13.45065      5.96195     11.09269         0.095148      0.623514     -0.591939
Ti       1.90809      9.65985      2.36883         0.368681      0.348219      0.946355
Ti       1.92080      9.62473     15.37128         0.719079     -0.966945      0.778423
Ti      13.47537      9.73496      2.36884        -0.437897      0.819195      0.517084
Ti      13.46826      9.76060     15.51697        -0.048154     -0.658641     -1.186055
Ti       1.86041      9.61135      6.53176        -0.126329      0.453029     -0.216530
Ti      13.38583      9.81466      6.56404        -0.490420     -0.523383      0.989183
Ti       1.93622      9.60597     11.08844         0.230205     -0.432757      0.090755
Ti      13.45077      9.77279     10.98374        -0.222664     -0.788697     -0.090005
Ti       5.71769      1.93202      2.25756        -0.133869      0.492892     -0.568541
Ti       5.72163      1.98489     15.41044         0.502849     -0.657904     -1.146032
Ti       5.74415     13.47329      2.32149         0.005858      0.408907      0.032691
Ti       5.74468     13.42564     15.40044         0.191561      1.824107     -0.611030
Ti       5.66920      2.01195      6.75310         1.154261      0.281740     -0.004010
Ti       5.73656     13.57674      6.77557         0.048048      0.066808     -0.296853
Ti       5.81595      2.03694     11.08630        -0.683029     -0.602746      1.112295
Ti       5.77372     13.52220     11.00359         0.394420      0.120870     -0.157317
Ti       5.74424      5.80530      2.51276         0.108003     -0.449143     -2.520933
Ti       5.70248      5.87893     15.47807        -0.103369     -0.588357     -0.385064
Ti       5.74207      5.86324      6.76200        -0.121810     -1.037679     -1.858250
Ti       5.83825      5.90773     10.98135        -0.249430     -0.622068     -1.210784
Ti       5.77057      9.70004      2.29774        -0.042498      0.146636      0.562211
Ti       5.85242      9.64799     15.54601        -0.926486      0.206732     -1.283974
Ti       5.71419      9.71657      6.68485         0.685106      0.706763     -0.853683
Ti       5.89446      9.69006     10.91510        -1.148126      0.328224      0.323970
Ti       9.61080      1.99144      2.30269        -0.690105      0.134139     -0.000996
Ti       9.53846      2.00059     15.48252         0.161167     -0.457535     -1.231324
Ti       9.61416     13.55855      2.39547        -0.467491     -0.097629     -0.519582
Ti       9.51868     13.44933     15.45316         1.159390      0.000547     -0.095419
Ti       9.63642      2.03590      6.71920        -0.810498      1.303322     -0.252125
Ti       9.55566     13.58435      6.69397         0.067846     -0.360960      0.781171
Ti       9.57688      1.96433     11.07329         0.383601      0.643739      0.295665
Ti       9.60729     13.52223     11.11853        -0.962338     -0.564710     -1.161775
Ti       9.56641      5.82296      2.37390         0.586320      0.820447     -0.547585
Ti       9.52962      5.83875     15.40836         0.792933      0.529198      0.310993
Ti       9.59825      5.94755      6.71345        -0.195751     -0.731600     -1.387994
Ti       9.67000      5.91887     11.05119         0.062122     -0.402068      0.139422
Ti       9.57897      9.67889      2.41078         0.523217      0.053462     -0.232622
Ti       9.58699      9.67404     15.55810         0.344124     -0.054535      0.037221
Ti       9.55525      9.75412      6.55167         0.467556      0.768964     -0.619178
Ti       9.65281      9.68986     11.01849         0.057163      0.483045     -0.145339
O       2.00121      2.03992      0.54285        -0.124059     -0.430770     -0.550297
O       1.90503      1.84736     13.52106        -0.433043     -0.036576     -0.348977
O       1.99166     13.58053      0.65433        -0.360455     -0.129181     -0.448295
O       1.79668     13.39079     13.60283         0.234357      0.079304      0.087798
O      13.47576      2.02097      0.52029        -0.140636      0.507961      0.153618
O      13.41334      2.17572     13.53380         0.229176     -0.408424      0.058183
O      13.52641     13.73511      0.56528        -0.102004     -0.041037      0.315828
O      13.32622     13.48023     13.72608         0.166094      0.355873     -1.353189
O       1.89219      2.10009      5.02430         0.102634     -0.418335     -0.543092
O       1.98471     13.52300      4.96189        -0.262154      0.208020     -0.595441
O      13.33156      2.07649      5.03302         0.104571     -0.043203     -1.825871
O      13.38081     13.78416      4.95941        -0.073386     -0.403516     -0.175456
O       1.81099      1.87330      9.33087         0.380762      0.210029      0.440203
O       2.07250     13.37217      9.34895        -0.194834     -0.153740      0.539058
O      13.47896      2.16635      9.32693        -0.074803     -0.376715      0.597226
O      13.44362     13.55627      9.37864        -0.446544      0.139193     -0.248402
O       1.86320      5.81921      0.58841         0.471759     -0.160403     -0.435501
O       1.85061      5.89262     13.49210         0.374516     -0.589191     -0.472159
O      13.57904      5.94251      0.47291        -0.410016     -0.301155      0.598703
O      13.46547      5.95857     13.59023         0.363615      0.088846     -0.783578
O       1.77022      5.83518      4.88531         0.116793     -0.113149      0.226818
O      13.45783      6.05187      4.85395         0.168390     -0.250520     -0.272243
O       2.07340      5.73060      9.29742        -0.360924      0.128927      0.491848
O      13.38852      5.96841      9.31521         0.111627     -0.122932     -0.058887
O       1.96058      9.64654      0.65984         0.083462      0.353797     -1.928535
O       2.02917      9.57204     13.64256        -0.262539      0.341232     -0.643060
O      13.47255      9.82581      0.63678        -0.151255     -0.043160     -1.018014
O      13.52418      9.71273     13.74687        -0.324361      0.273744      0.414408
O       1.93675      9.63025      4.76287        -0.063850     -0.287693      0.414001
O      13.38699      9.70595      4.85980         0.388628      0.144456     -1.545542
O       1.87098      9.61228      9.35792         0.058620      0.229912     -0.380672
O      13.46975      9.75089      9.19850        -0.289564      0.380448      0.211440
O       5.57038      2.03723      0.48757         0.431848     -0.117268      0.366260
O       5.84524      1.92818     13.60304        -0.007337      0.411360      0.613940
O       5.71106     13.40557      0.54584         0.126354      0.254841      0.708069
O       5.80439     13.45525     13.64112         0.181206     -0.281408     -0.287114
O       5.66444      2.01491      4.97794         0.286597      0.041428     -0.503258
O       5.79433     13.62303      5.00226         0.134329     -0.081483     -0.148319
O       5.83289      2.02660      9.35871        -0.024509     -0.020428     -0.692571
O       5.70402     13.55372      9.23537         0.055432     -0.190726     -0.477769
O       5.66778      5.74168      0.65409        -0.133935      0.183256      0.251234
O       5.81053      5.88112     13.71658        -0.089941      0.149101     -0.236300
O       5.73583      5.82947      4.86909         0.212902      0.244377      0.345384
O       5.69763      5.90261      9.18169         0.257723     -0.014407      0.407645
O       5.63645      9.81484      0.53427         0.374862     -0.367426     -0.323560
O       5.94981      9.70854     13.72582        -0.218385     -0.368708      0.925704
O       5.82288      9.76312      4.91321        -0.168520     -0.584171      0.093252
O       5.86492      9.71052      9.15251        -0.069797     -0.400382     -0.351146
O       9.68464      2.02599      0.52818        -0.105114      0.039587     -0.170618
O       9.64344      1.96946     13.67799        -0.412291      0.200921      0.374782
O       9.64812     13.54752      0.64072        -0.136721      0.370887     -0.419034
O       9.66511     13.38174     13.69196        -0.201673      0.321811     -0.115933
O       9.73735      2.07740      4.96649        -0.419700      0.069617     -0.802747
O       9.57716     13.61083      4.97724        -0.215321      0.064322     -1.736507
O       9.59766      2.13864      9.32026        -0.226778     -0.469787     -0.400070
O       9.50325     13.53519      9.33370         0.628581      0.186921      0.406225
O       9.68335      5.86389      0.60387        -0.180191     -0.413298     -0.722814
O       9.56090      5.94339     13.66272        -0.201744     -0.114432     -0.378903
O       9.54649      5.91973      4.94425         0.095549      0.043106     -0.313976
O       9.69160      5.92520      9.33452         0.064811     -0.200757     -1.733113
O       9.71697      9.64213      0.62009        -0.164399      0.220390      0.011983
O       9.50654      9.69932     13.79902         0.130533     -0.196870     -0.178046
O       9.42407      9.69750      4.78716         0.239780      0.019091     -0.421259
O       9.67167      9.79926      9.27842        -0.149356     -0.210711     -0.174188
O       3.80632      1.90396      2.73263         0.753816      0.281954      0.213308
O       3.82906      1.88158     15.59288        -0.684916     -0.026151      0.446600
O       3.77997     13.49446      2.85941         1.505556      0.109840     -0.241200
O       3.91883     13.54376     15.66429        -1.895899     -0.051367      0.426102
O       0.04223      2.02296      2.73303        -0.638308     -0.775612     -0.001292
O       0.03206      1.88146     15.71007        -0.361678      0.373129      0.081623
O      15.35226     13.74648      2.88389         0.152466     -0.283197     -0.299249
O      15.35822     13.67265     15.83377        -0.314653     -0.061837     -0.098254
O       3.85113      2.03821      7.14141        -0.839272     -0.502570      0.347206
O       3.84827     13.44428      7.08923        -0.633667      0.205893      0.245266
O      15.32533      2.22569      7.07388         0.302721     -0.375880      0.438653
O      15.26274     13.65271      7.07127         0.824969      0.004765      0.302714
O       3.85827      2.05508     11.59956         0.339605     -0.412615     -0.655275
O       3.95903     13.49387     11.49695        -1.453855     -0.689947      0.439204
O       0.00140      1.76806     11.45049        -0.838161      0.446638      0.338522
O      15.32840     13.60790     11.36563         0.329600     -0.139726      0.898510
O       3.78325      5.81446      2.74545         0.601039      0.497635      0.412212
O       3.77637      5.89351     15.70735         0.608620     -0.200979      0.347018
O      15.35201      5.91565      2.64997         0.123967      0.235507      0.671998
O      15.34217      6.04346     15.71758         0.631623     -0.780533      0.053844
O       3.75446      5.82487      6.89607         0.752272      0.444691      0.770250
O      15.33165      5.99929      7.17520        -0.294035     -0.078705     -0.250322
O       3.88679      5.76255     11.38333         1.113377     -0.141114      0.745363
O       0.09908      5.68291     11.38397        -1.016780     -0.054944      0.215994
O       3.91804      9.66658      2.73312        -0.854148     -0.018247      0.271321
O       3.89877      9.69732     15.72561        -0.515813     -0.377934      0.433695
O      15.35027      9.86641      2.74461        -0.129452      0.150775      0.164905
O       0.01893      9.60895     15.81977         0.510181      0.332141      0.157712
O       3.79830      9.58762      6.97739        -0.176464      0.443481      0.053507
O      15.30125      9.84322      6.95961         0.580504      0.055314      0.011745
O       3.89029      9.61574     11.29726         0.207810      0.220842      0.618215
O      15.33945      9.92385     11.49683         1.218468     -0.604268     -0.208491
O       7.62309      2.14811      2.61184         0.136766     -0.519157      0.243146
O       7.65212      2.04881     15.89906         0.277205      0.156839      0.088026
O       7.66811     13.60114      2.75662        -0.480017     -0.625561      0.133239
O       7.70779     13.41684     15.80026        -0.349461      0.290277      0.468519
O       7.66994      2.09161      7.05997         0.266023      0.226840      0.397349
O       7.70986     13.49685      7.16891        -0.743829      0.581877     -0.149428
O       7.72067      1.93203     11.56276         0.079840      0.304609     -0.337762
O       7.64675     13.48007     11.40636         0.908337      0.273312      0.592238
O       7.65336      5.87991      2.52309        -0.043248     -0.060539      1.031567
O       7.65220      5.81040     15.82019         0.153375      0.053587      0.425813
O       7.67189      5.81350      6.98076        -0.192016      0.562436      0.710405
O       7.77344      5.92443     11.32424        -1.201679     -0.051896      0.507291
O       7.66401      9.74411      2.62326        -0.132475     -0.434821      0.096897
O       7.69228      9.67108     16.08186        -0.011116      0.005718     -0.353461
O       7.71549      9.81447      6.98725        -1.206675     -0.716156      0.624309
O       7.71455      9.58124     11.50576         0.175916      0.193030     -0.472104
O      11.48664      1.91067      2.72396         0.353157      1.239043     -0.237809
O      11.53373      2.09356     15.65398        -0.613845     -0.087999      0.849718
O      11.54460     13.65529      2.80542        -0.279764      0.303881     -0.262955
O      11.49272     13.57591     15.91269        -0.205610      0.064478     -0.188922
O      11.50336      2.10369      7.17637         0.415381     -0.312860      0.396906
O      11.41173     13.63453      7.06938         1.271160      0.289184      0.714487
O      11.48194      1.94944     11.37543         0.431006      0.219529      0.512513
O      11.49555     13.53964     11.51055         0.175063     -0.160150      0.227641
O      11.55709      5.92873      2.69702        -0.107674     -0.291972      0.056846
O      11.57893      5.97285     15.58226        -1.694855     -0.249436      0.904815
O      11.56274      5.99946      7.01033        -0.719487     -0.048118      0.211652
O      11.54994      5.95365     11.50989        -0.082056      0.277815      0.257654
O      11.55397      9.71966      2.84514        -0.164169      0.291613     -0.420465
O      11.52397      9.76069     15.92938         0.223488     -0.376699     -0.326771
O      11.47908      9.82239      6.90868         0.024484     -0.463767      0.544367
O      11.57140      9.68445     11.48765        -0.449959      0.191384     -0.078843
O       1.94017      3.89746      2.63143         0.265742     -0.449158      0.640999
O       1.94396      3.88876     15.57923        -0.145350     -0.557707      0.214818
O       1.96092      0.03136      2.83274        -0.721282      0.928147     -0.250100
O       1.90741     15.36125     15.77839        -0.162888     -0.060104     -0.220933
O      13.45436      4.02512      2.72720        -0.479154     -0.792238     -0.071002
O      13.36439      4.03341     15.76718         0.779598     -0.346291      0.263652
O      13.44054      0.22856      2.69764         0.410046      0.329723      0.451899
O      13.43373      0.26421     15.65596         0.084372     -1.417608      0.463477
O       1.94503      3.89502      7.12127        -0.374895      0.234037      0.289895
O       1.92869      0.05195      7.07246        -0.073957     -0.044534      0.364600
O      13.41165      4.04298      6.93880        -0.158367      0.545054      0.551741
O      13.49012     15.55935      7.10639        -0.702449      0.098759      0.741131
O       1.91736      3.80505     11.50098        -0.080903      0.016794      0.089348
O       1.94058     15.27659     11.41685         0.138336      0.882150      0.624684
O      13.34372      4.09116     11.39184         0.652070     -1.883615      0.466686
O      13.36274     15.48585     11.36217         0.311196      0.702583      0.779575
O       1.82629      7.80305      2.54174         0.542743     -1.800827      1.057843
O       1.91860      7.66614     15.75251        -0.019902      1.084879      0.177973
O      13.50894      7.82409      2.65920        -0.262405      0.229350      0.081418
O      13.52722      7.86102     15.92012        -0.614992      0.371914     -0.383957
O       1.84287      7.77010      7.14505         0.201865     -0.467612     -0.555439
O      13.38397      7.91825      7.08696         0.348605     -0.469564     -0.358141
O       2.00494      7.64828     11.52984        -0.295428      1.532415     -0.337853
O      13.58189      7.89489     11.45483        -0.263343     -0.077823      0.003994
O       1.94247     11.56903      2.77152        -0.365596      0.393282      0.163821
O       1.90801     11.55834     15.87469         0.255759     -0.224855     -0.461455
O      13.43857     11.75712      2.69960         0.003701     -0.068594      0.326815
O      13.41395     11.74846     15.82115         0.278015     -1.144144      0.496329
O       1.81308     11.54381      6.89696         0.567597     -0.452134      0.707814
O      13.34178     11.67629      7.01496         0.191791      1.051877      0.254998
O       2.05160     11.56140     11.55655        -0.420203     -1.818741      0.039669
O      13.43468     11.61012     11.42130        -0.386708      1.072355      0.508552
O       5.70484      3.91107      2.69329        -0.222219     -0.545645      0.577710
O       5.61972      3.87046     15.75693         0.466039      1.002902      0.320058
O       5.86179     15.41110      2.64761        -0.707143      0.587615      0.058704
O       5.90484     15.43414     15.76236        -0.243030     -0.317145      0.437289
O       5.74542      3.95485      7.10820        -0.085685      0.268003      0.252861
O       5.82252      0.10329      7.11594        -0.208137      0.197305      0.318661
O       5.93785      3.96368     11.43264        -0.399900      0.148052      0.222240
O       5.76085     15.40060     11.41226         0.182901      0.946394      0.203752
O       5.72846      7.77166      2.66491         0.075091     -0.000923      0.384049
O       5.81547      7.74979     15.98077        -0.170042      0.208777     -0.223562
O       5.78139      7.76461      7.01725         0.088755      0.330038      0.208057
O       5.75876      7.76957     11.38047         0.209965     -0.260114      0.299178
O       5.77228     11.58848      2.83399        -0.076651      0.668053     -0.365198
O       5.68695     11.64556     15.89440         0.998058     -1.939667     -0.143654
O       5.78686     11.58706      7.01783        -0.426153      0.261244      0.355401
O       5.88262     11.54309     11.29104        -0.458215     -0.393083      0.507711
O       9.54393      3.95955      2.72530         0.602611     -0.774523      0.224338
O       9.55359      3.90162     15.82124         0.339678      1.051248      0.076763
O       9.44469      0.14297      2.71838         0.465890      0.501507      0.240536
O       9.54147     15.44190     15.79022         0.030929     -0.195252      0.308591
O       9.65165      4.04252      7.08885         0.043499     -0.261126      0.530676
O       9.53583      0.22412      7.07121         0.253345     -1.226807      0.534301
O       9.70485      3.95765     11.48640        -0.772177     -0.617526     -0.097589
O       9.58840     15.39644     11.54620         0.090445      0.628447     -0.165224
O       9.63024      7.76346      2.58211        -0.379557      0.178130      0.921680
O       9.66869      7.73765     15.92074        -0.717176      0.020642     -0.063413
O       9.53691      7.90961      7.00955         0.161375     -1.212090      0.493782
O       9.67689      7.82548     11.35749        -0.191236     -0.155633      0.719973
O       9.56344     11.66232      2.63620         0.402123     -0.076278      0.749070
O       9.58427     11.56166     15.93215         0.139986      0.414197      0.041322
O       9.61452     11.62788      7.00658        -0.020980      0.880687      0.302875
O       9.59256     11.58794     11.46159         0.203389     -0.110689      0.329711
