  # total energy = -7880.50576370 
CRSYTAL
PRIMVEC
    15.3600000000000000    0.2300000000000000    0.0000000000000000
     0.0000000000000000   15.3600000000000000    0.0000000000000000
     0.0000000000000000    0.0000000000000000    17.440000000000000
PRESSURE
1.36308 1.5579 -1.35985 -0.381529 0.157826 -1.54918
PRIMCOORD
320 1
Pb       3.75487      3.73764      4.53111        -0.064374      0.489583     -0.571221
Pb       3.86257      3.93235     17.33618        -0.020482      0.198406      0.127744
Pb       3.72325      0.08536      4.30284         0.359691      0.184685      0.376413
Pb       3.77625      0.10953     17.35129         0.334082     -0.474453      0.714908
Pb      15.18423      3.90350      4.22691         0.652322      0.929878      0.194813
Pb      15.26800      4.09827     17.20889         0.274719     -0.420092      1.203254
Pb       0.02553     15.26564      4.30903        -0.183803      0.181212     -0.113794
Pb       0.00463     15.34921     17.35823        -0.189095     -0.056146     -0.037180
Pb       3.83539      3.95083      8.78114        -0.052964      0.048966     -0.077011
Pb       3.82822     15.36983      8.77032        -0.123193      0.655565     -0.551773
Pb      15.35363      4.09779      8.74925        -0.587280     -0.236137      0.043335
Pb      15.33772      0.32907      8.70600        -0.493079      0.320949     -0.039997
Pb       3.81325      3.96501     12.98864        -0.230858      0.192660      0.474058
Pb       3.92021      0.07707     13.02600        -0.265466     -0.447522     -0.138726
Pb       0.05098      3.87019     13.02893         0.009010     -0.027629     -0.021831
Pb       0.03724     15.33891     13.07865        -0.268939     -0.299703     -0.069655
Pb       3.74675      7.65948      4.36827         0.220641     -0.418490     -0.297290
Pb       3.87809      7.81842     17.38675        -0.009421     -0.153798      0.016842
Pb       0.04135      7.62482      4.24260         0.157961     -0.287221     -0.091861
Pb       0.06847      7.74017     17.40092        -0.250278     -0.477097      0.368922
Pb       3.68655      7.84688      8.62002         0.833684     -1.050609      0.808562
Pb      15.35278      7.99353      8.65665        -0.363803     -0.716280      0.032411
Pb       3.90715      7.97765     13.08173        -0.456072     -0.782633      0.072189
Pb      15.29892      7.93279     13.01061         0.443838     -0.032645      0.234369
Pb       3.86531     11.66840      4.42070         0.033408     -0.080208     -0.111694
Pb       3.80576     11.65504     17.36716         0.188613     -0.901772      0.244059
Pb      15.29903     11.80653      4.29994         0.266503     -0.545605      0.190821
Pb       0.02840     11.35676      0.03343        -0.326692      0.625609     -0.060049
Pb       3.63946     11.64716      8.65141         0.394949     -0.755103      0.452583
Pb      15.15611     11.67414      8.73555         0.313803      0.028515     -0.684554
Pb       3.83498     11.59862     13.14260        -0.166492      0.224366     -0.631384
Pb       0.01533     11.47607     13.14582         0.095845      0.443649     -0.460608
Pb       7.58304      3.87937      4.43012         0.355491      0.153562     -0.599027
Pb       7.66158      3.84030     17.40419        -0.171428      0.518634     -0.449030
Pb       7.47546      0.24562      4.39643         0.903337     -0.402170     -0.313139
Pb       7.50080     15.44186     17.31343         0.705088     -0.226166      0.388430
Pb       7.68668      4.04069      8.78430         0.007283      0.099130     -0.123331
Pb       7.53157      0.19435      8.75641         0.845495      0.088425      0.272105
Pb       7.69477      3.84568     13.04972         0.300697      0.015237     -0.182041
Pb       7.66996     15.47040     13.04410         0.028319      0.088010     -0.571897
Pb       7.67112      7.85723      4.27815         0.542788     -0.396755      0.507541
Pb       7.71422      7.87500      0.01290        -0.025216     -0.179718     -0.526961
Pb       7.66208      7.69745      8.58087        -0.086910      0.351094      0.453913
Pb       7.66786      7.68958     13.00237         0.379785      0.621109      0.289583
Pb       7.67727     11.60605      4.21568        -0.017306     -0.218991      0.954576
Pb       7.83150     11.65277     17.43899         0.098148     -0.089585     -0.580058
Pb       7.55131     11.63328      8.60312         1.135047     -0.871928      1.351544
Pb       7.69371     11.39435     12.91788        -0.112066      0.526289      0.558380
Pb      11.51349      3.88307      4.22579         0.091563      0.240094      0.645866
Pb      11.46051      3.94248     17.30696         0.240129     -0.244752      0.342879
Pb      11.41057      0.19154      4.22892         0.003849      0.085644      0.248820
Pb      11.54711     15.39952     17.39178        -0.653747      0.226238      0.180204
Pb      11.55587      4.13581      8.66202         0.521017     -0.721502      0.327323
Pb      11.57039     15.44173      8.76457         0.055295      0.665369     -0.722435
Pb      11.64853      3.98196     13.05989        -0.315277     -0.000526     -0.087257
Pb      11.49417     15.26421     13.14535         0.551594      0.311718     -0.264342
Pb      11.50567      7.81475      4.27933        -0.191956     -0.193420      0.274128
Pb      11.59696      7.85270     17.40597        -0.231756     -0.780067     -0.078069
Pb      11.42375      7.86274      8.62902         0.589821      0.183727      0.426027
Pb      11.54884      7.71041     12.99475        -0.405068      0.506284      0.603562
Pb      11.41929     11.82646      4.46270        -0.004294     -0.536511     -0.083502
Pb      11.60912     11.56811      0.05962        -0.204773      0.484537     -0.295012
Pb      11.45661     11.59561      8.60367        -0.135616     -0.087071      0.425734
Pb      11.48216     11.54474     13.18328         0.029780      0.192446     -0.824148
Ti       1.93678      1.97718      2.21872        -0.224470      0.364982     -0.899807
Ti       1.90696      1.94317     15.42503         0.140994      0.033081      0.849051
Ti       1.93632     13.46455      2.33591        -0.369199     -0.087746      0.435118
Ti       1.92936     13.39537     15.46445        -0.833322      0.366103     -1.546931
Ti      13.51432      2.03510      2.24908        -1.019252      0.280060     -0.727565
Ti      13.42443      2.05255     15.33442        -0.467268      0.184619     -0.962320
Ti      13.42980     13.51070      2.34303        -0.571264      1.531101     -1.298952
Ti      13.42557     13.65246     15.38966         0.456685     -1.259132      0.556906
Ti       1.85928      2.02394      6.74948         0.163580     -0.939393     -0.332682
Ti       1.90996     13.52432      6.77903        -1.045957      0.137708     -1.053991
Ti      13.36900      2.15042      6.63306        -0.086130      0.160626      2.669994
Ti      13.40661     13.63763      6.61705         0.803446      0.756467      0.742202
Ti       1.94230      1.86255     11.16713        -1.171771      0.967440     -1.925696
Ti       1.88503     13.34525     10.89576         0.398143      0.654755      0.827068
Ti      13.47671      2.04032     11.14705         0.212502      0.243941     -1.856781
Ti      13.50843     13.51401     11.05245        -1.565690      0.980587      1.613239
Ti       1.93410      5.72575      2.29244        -0.581810      0.419106      0.836646
Ti       1.91940      5.81308     15.41365         0.724640      0.210935     -0.727901
Ti      13.39548      5.91730      2.30208         0.935491     -0.794546     -0.463206
Ti      13.44909      5.92210     15.36920        -1.119836      0.548996     -0.429448
Ti       1.85636      5.76489      6.74437         0.238310     -0.744134     -1.083726
Ti      13.41793      6.00373      6.49766         0.461028     -1.244737      0.341430
Ti       1.90955      5.87665     11.00759         0.410336     -1.048532     -0.515528
Ti      13.48074      5.92969     11.10698        -0.757246     -0.292110     -0.484311
Ti       1.99481      9.68295      2.40474        -1.478598     -0.788631     -0.608628
Ti       1.85269      9.59078     15.38385         1.136364      0.159942     -1.068554
Ti      13.47017      9.71302      2.35975         0.717773      0.991043     -0.225179
Ti      13.40323      9.82685     15.35085        -0.380669     -0.800912     -0.487161
Ti       1.91478      9.57830      6.57604        -1.222521      0.604854      0.072956
Ti      13.44232      9.77708      6.57946        -0.873417     -0.402341     -0.805224
Ti       1.85030      9.58642     11.01667         0.536511     -0.017941      0.590595
Ti      13.45417      9.78325     10.98485        -0.805983     -0.057587      0.253509
Ti       5.71878      1.97265      2.26666         0.465628     -0.540217     -0.021426
Ti       5.73902      1.99147     15.33181        -0.012452      0.691871     -0.112469
Ti       5.72360     13.50010      2.40716         1.005362      0.561429      0.276333
Ti       5.74387     13.47929     15.26577        -0.080297     -0.023163     -0.677162
Ti       5.71237      2.01283      6.77524        -0.630053     -0.734591     -0.707613
Ti       5.87306     13.46904      6.83293        -1.190250      1.180026     -2.037135
Ti       5.75058      2.03233     11.09525         0.565267     -0.378555     -1.100620
Ti       5.77010     13.49039     10.97463        -0.006774     -0.523287      2.107182
Ti       5.72230      5.80642      2.40739         0.507592     -0.212287      0.139086
Ti       5.74989      5.93021     15.38916         0.269922     -1.332803     -0.695882
Ti       5.74322      5.80726      6.62135        -0.810002      0.041105     -0.541677
Ti       5.76236      5.87258     11.15761        -1.068270      0.231851     -1.169576
Ti       5.71508      9.60093      2.36510         0.584946     -0.122326     -0.399135
Ti       5.75176      9.75470     15.32235         0.379027     -1.314809     -0.257879
Ti       5.69576      9.66114      6.68498         0.784430     -0.816830     -0.746971
Ti       5.67779      9.70714     10.99050         0.832221     -0.347106     -1.147088
Ti       9.61864      2.06359      2.29221        -0.548299     -1.242922      0.111344
Ti       9.56470      1.99492     15.32585         0.151855     -0.498726     -0.650456
Ti       9.57599     13.49365      2.45340         0.030437      1.782304     -1.278595
Ti       9.62311     13.53844     15.32313        -0.551796     -0.499696      2.256572
Ti       9.51394      2.07384      6.75185         1.569741     -0.480881     -1.154945
Ti       9.60166     13.61691      6.72451         0.611927      0.045721     -1.903089
Ti       9.73640      1.97204     11.00688        -0.898789      0.671359     -0.043743
Ti       9.58200     13.58088     11.03523         0.111528     -0.700593      0.172405
Ti       9.56993      5.79337      2.33015        -0.234566      0.735887      0.922130
Ti       9.55398      5.82694     15.37821         0.446884      0.968021     -1.626125
Ti       9.67936      5.88148      6.64635        -0.878959      0.280376     -1.600587
Ti       9.59875      5.85202     11.16436         0.317813     -0.038177     -0.656211
Ti       9.72421      9.68087      2.34040        -1.645075     -0.238103     -0.385580
Ti       9.69233      9.66344     15.39532        -1.503480      0.281136     -0.785373
Ti       9.54028      9.70174      6.64707         0.658383      0.492787     -0.510668
Ti       9.64764      9.74119     11.02993        -0.331307     -0.808596     -1.271256
O       1.83384      1.92685      0.40830         0.150936     -0.048001      0.904981
O       2.05881      1.94244     13.70707        -0.215616     -0.117489     -1.094161
O       1.96477     13.30622      0.60107        -0.267682      0.171358     -1.003807
O       1.94773     13.26639     13.67304         0.087080      0.258221      0.234324
O      13.47603      2.18502      0.48718         0.017120     -0.728750     -0.210998
O      13.44904      2.09521     13.54043        -0.108410     -0.023568      0.977371
O      13.36357     13.60617      0.51354         0.054459     -0.329701      0.559572
O      13.43373     13.64160     13.66220         0.238587     -0.365458     -0.972891
O       1.95882      1.94477      4.94402        -0.079242      0.169715      0.388109
O       1.85401     13.56626      4.91702         0.315161     -0.226845      1.253881
O      13.31624      2.19596      4.93302         0.492930     -0.369652     -2.039742
O      13.57488     13.60918      4.83822        -0.563815     -0.191705      0.530789
O       1.75951      1.94271      9.36156         0.618454     -0.080106      0.614230
O       1.89421     13.47271      9.11344         0.098910     -0.299953      0.332518
O      13.63349      2.13139      9.29106        -0.456870     -0.323323      1.383768
O      13.42804     13.60385      9.34542         0.027112      0.016623     -1.498558
O       1.86801      5.74646      0.56062         0.044431      0.019630     -1.189397
O       1.85210      5.89919     13.67388         0.230654     -0.336707      0.144919
O      13.30336      5.98779      0.49956         0.455183     -0.238172      0.259554
O      13.35267      5.87824     13.54759         0.375218      0.308197      1.159401
O       2.08085      5.71064      4.93499        -0.632000      0.301992      0.837643
O      13.28064      5.75932      4.73264         0.714397      0.871414      0.692731
O       1.82636      5.68073      9.17266         0.389041      0.880719      1.388807
O      13.29560      5.82244      9.36223         0.573223      0.332069      0.339047
O       1.75887      9.69573      0.58740         0.478164     -0.161380     -0.135991
O       1.89439      9.65502     13.57647        -0.226513      0.121522      0.609830
O      13.54750      9.82706      0.52650        -0.167965     -0.261774      0.511055
O      13.25060      9.73995     13.56610         0.799163      0.361458      0.607938
O       2.00026      9.50946      4.78141        -0.269569      0.354733      1.054500
O      13.30247      9.83267      4.76660         0.654321      0.066866      0.771359
O       1.81204      9.47579      9.27901         0.246501      0.024682     -0.945191
O      13.42199      9.86287      9.22676         0.295365     -0.382175     -0.157575
O       5.76321      1.71631      0.49974         0.224151      0.813904     -0.125954
O       5.73460      2.00135     13.53723        -0.118143     -0.183421      0.141007
O       5.90599     13.63984      0.71007        -0.729489     -0.498697     -1.177603
O       5.58775     13.43329     13.48406         0.106974     -0.107539      0.557988
O       5.59507      1.98329      4.96743         0.477665     -0.166369      0.091538
O       5.75769     13.49187      5.02185         0.013043     -0.107893      0.608260
O       5.68978      2.02767      9.27855         0.241985     -0.419124      0.542600
O       5.79910     13.44427      9.25748         0.137045      0.302933     -2.333765
O       5.87442      5.77091      0.65155        -0.044831      0.154484     -0.311397
O       5.59991      5.77790     13.62353         0.596603      0.466467     -0.312620
O       5.58572      5.77198      4.82481         0.482169     -0.079880      1.067751
O       5.67623      5.83858      9.37067         0.623150     -0.065575      0.048659
O       5.59955      9.49173      0.59833         0.586000      0.335147     -0.260126
O       5.67409      9.74031     13.50853        -0.052332      0.059846      0.818746
O       5.58829      9.63809      4.89882        -0.114775      0.294233      0.879164
O       5.81645      9.66856      9.17919        -0.286324     -0.209077      0.405816
O       9.70851      1.97749      0.53595        -0.718165      0.314193     -0.253680
O       9.46316      1.97746     13.51168         0.312932      0.188357      1.192455
O       9.72591     13.53065      0.62493        -0.500695     -0.552899      0.682630
O       9.72816     13.44177     13.64188        -0.475015      0.252172     -1.974243
O       9.55906      2.19338      4.94122        -0.071063     -0.627170      0.839027
O       9.58748     13.51928      4.86035         0.294072      0.102955      1.147465
O       9.61711      1.98356      9.22501        -0.248525     -0.112116      0.135749
O       9.49204     13.62152      9.29474         0.659803      0.021408     -0.512433
O       9.48300      5.89114      0.58866         0.084253     -0.425093     -0.713665
O       9.62415      5.96470     13.52701        -0.144244     -0.756802      1.153965
O       9.54343      6.04604      4.85720         0.870627     -0.569303      1.481694
O       9.56596      5.89558      9.35932        -0.007976     -0.019372     -0.210784
O       9.56828      9.82135      0.54811         0.132263     -0.201458      0.077818
O       9.71235      9.75318     13.61194        -0.165191      0.050901     -0.265778
O       9.62377      9.62044      4.88274         0.534805      0.176012     -0.540107
O       9.59027      9.66512      9.19539        -0.039282      0.036594      0.966189
O       3.80614      1.90208      2.52957        -0.123861      0.021188      0.443481
O       3.90446      1.91230     16.03601        -0.912159      0.707786     -1.502119
O       3.80052     13.60327      2.78547         0.875548     -0.859617     -0.024850
O       3.83969     13.42287     15.87882         0.031852      0.161969     -0.189422
O       0.02927      1.88204      2.61157         0.019060      0.164006      0.436340
O      15.32463      2.06525     15.76750        -0.101695      0.355638     -0.239878
O      15.34109     13.56529      2.73667         0.798127      0.006925     -0.104580
O       0.00777     13.26266     15.71083         0.073596      0.603455      0.571681
O       3.82831      2.02375      7.13079        -0.872600     -0.148507      0.344082
O       3.90068     13.40723      7.17321        -0.872943      0.301757     -0.222959
O      15.31141      2.15657      7.13331         0.615783     -0.101018     -0.507411
O      15.33182     13.70436      7.11923         0.156757     -0.590551     -0.358574
O       3.79903      1.97916     11.49234         0.860210     -0.008889     -0.080484
O       3.82510     13.28556     11.25526        -0.883767      0.476786      0.081582
O       0.01269      1.80363     11.57049         0.602346      0.528000      0.327081
O      15.33980     13.73811     11.49546         1.150504     -0.333345     -0.168471
O       3.83973      5.88813      2.61483         0.184563      0.056690      0.198979
O       3.88225      5.75236     15.76939        -0.777549      0.091078      0.563869
O       0.00570      5.56753      2.74900        -0.276013      0.806774      0.049074
O       0.00840      5.71992     15.74588        -0.904033      0.397959     -0.074940
O       3.81609      5.71613      7.05422         0.594268      0.106865      0.381485
O      15.30620      6.06243      7.09623         0.131906     -0.442146     -0.541604
O       3.77144      5.69136     11.47576         0.557735      0.905082     -0.448775
O       0.03169      5.85608     11.55651        -0.435987     -0.211747     -0.510802
O       3.79727      9.58484      2.67278         1.135564     -0.251605      0.282010
O       3.78361      9.55333     15.73536         0.464176      0.538435      0.153482
O       0.01943      9.69314      2.74805        -0.575030      0.246789      0.216619
O      15.27614      9.60951     15.69852         0.625061      0.892149      0.054399
O       3.73187      9.56598      7.11632         0.731266      0.496791     -0.504117
O      15.32599      9.73787      7.13534         0.478761      0.475934     -0.719420
O       3.76186      9.69859     11.39727         0.873688      0.059900     -0.020614
O       0.00025      9.46954     11.34834        -0.774710      0.110641      0.549651
O       7.71342      1.90212      2.67201        -0.758983      0.846232      0.130931
O       7.58692      1.99005     15.69422         0.529068     -0.433688      0.390779
O       7.68002     13.54729      2.71274        -0.418927     -0.323038      0.445251
O       7.56478     13.34306     15.63061         0.863075      0.605104      0.432447
O       7.64314      1.85785      7.03807         0.238515      0.851676      0.364599
O       7.77233     13.44703      7.09110        -1.369881      0.211135      0.234493
O       7.70416      1.89549     11.35598        -0.558154     -0.043808      0.309146
O       7.66173     13.73961     11.34011         0.681590     -0.805151      0.397061
O       7.72639      5.81261      2.86962        -0.524008     -0.161638     -0.345535
O       7.72736      5.83487     15.69112        -0.918060      0.291839      0.516342
O       7.67083      5.82499      7.03025         0.105718      0.061173      0.231028
O       7.61995      5.80054     11.51678         0.328896      0.430458     -0.010348
O       7.71403      9.61485      2.68666        -0.087313      0.306192     -0.019330
O       7.68320      9.65604     15.65643        -0.589090      0.147805      0.595254
O       7.66032      9.58825      6.75996        -0.529414      0.384645      1.034644
O       7.58154      9.58358     11.48956         1.268280      0.326897     -0.170226
O      11.51479      2.09747      2.61054         0.725051     -0.560711      0.522717
O      11.45218      2.00714     15.69114         0.402133      0.088916     -0.008162
O      11.52692     13.60361      2.78271        -0.224729     -0.122568      0.214890
O      11.49131     13.73943     15.68712         0.112701     -0.960643      0.326664
O      11.51330      1.98141      7.08750        -0.207723      0.484523      0.223374
O      11.53283     13.63711      7.09698         0.289892     -0.179386     -0.147201
O      11.56471      2.18211     11.25067        -0.551006      0.009004      0.550002
O      11.56493     13.46364     11.59951        -0.314835      0.131678     -0.628633
O      11.60519      5.82692      2.74729        -1.700555      0.636299     -0.402126
O      11.45884      5.72466     15.80328         0.227809      0.765475     -0.241299
O      11.56181      5.93191      7.15813        -0.738546      0.157613     -0.643765
O      11.56662      5.89880     11.52034        -0.724634     -0.426177     -0.286301
O      11.58756      9.76633      2.53689        -0.430436     -0.297043      0.293024
O      11.53508      9.65738     15.78975         0.471726      0.735478      0.516896
O      11.60343      9.77469      7.03930        -0.619901     -0.680075      0.205954
O      11.51625      9.88358     11.32024        -0.298541     -0.375906      0.185779
O       1.99253      3.89418      2.71596         0.112769     -1.657770     -0.049342
O       1.90589      3.85738     15.74964         0.180123     -0.178141      0.133297
O       1.89303      0.03587      2.63115        -0.285315     -0.176352      0.201248
O       1.78853     15.35176     15.72530         0.833484     -0.331108      0.401964
O      13.45679      3.98496      2.62017        -0.040893     -0.699803      0.155273
O      13.36044      3.97449     15.68196         0.476726      0.170851      0.155812
O      13.51782     15.48201      2.64581        -0.243305      0.748737      0.213087
O      13.39787     15.48592     15.66871         0.652749      1.334816      0.717604
O       1.82474      3.84907      7.23285         0.401006      0.120299     -0.626139
O       1.95920      0.06345      7.11729         0.119885     -0.627707      0.080927
O      13.42857      4.11881      6.97515        -0.080650     -0.750096      0.365279
O      13.46322     15.55914      7.04165        -0.105530     -0.815758     -0.042687
O       1.88118      3.96083     11.48749        -0.376560     -0.819504      0.092546
O       1.95372     15.36976     11.40220         0.286809     -1.208094      0.227939
O      13.47281      3.99831     11.51904         0.532138      0.544862      0.127802
O      13.35875      0.20476     11.51585         0.145491     -0.823559     -0.074450
O       1.74843      7.71536      2.68110         0.596315     -0.338244      0.091651
O       1.98286      7.74644     15.74705        -0.528142     -0.985123      0.653126
O      13.58105      7.84566      2.69984        -0.429042      0.177370     -0.204090
O      13.28139      7.80613     15.82733         0.724503     -0.391321     -0.490466
O       1.88320      7.63058      7.12954         0.135779      1.149370     -0.431801
O      13.46292      7.84633      6.85755        -0.417722      0.647128      0.279886
O       1.97218      7.73692     11.54184        -0.070128     -0.723172     -0.419403
O      13.36011      7.90628     11.42200         0.325144     -0.584936     -0.083463
O       2.09287     11.55549      2.78022        -0.515753      0.490399      0.231392
O       1.96125     11.48467     15.73502        -0.266039     -0.344862      0.802677
O      13.32866     11.72569      2.70308         0.577575     -1.118185      0.144311
O      13.44192     11.68284     15.75671        -0.458921     -0.581020      0.018806
O       1.83851     11.45645      7.03734         0.387728      0.423824     -0.252567
O      13.31931     11.63524      7.20639         1.259199      1.435846     -1.056859
O       1.79002     11.48252     11.27789        -0.282539      1.108699      0.237053
O      13.54685     11.66224     11.40162         0.405420     -0.054371      0.328241
O       5.77355      3.78715      2.78998        -0.149194      1.050633     -0.316917
O       5.83160      3.93824     15.71948        -0.441867     -0.829904      0.625869
O       5.76130      0.12653      2.78228        -0.242465     -1.054064      0.462301
O       5.65176     15.36885     15.61280         0.397606      0.068366      0.213895
O       5.77363      3.81841      7.04680         0.387466      2.256624      0.413707
O       5.74873      0.09741      7.16373        -0.171796     -1.529175      0.316092
O       5.78807      3.88803     11.31635        -0.099483     -0.145267      0.747602
O       5.73834     15.35591     11.50761        -0.839555      0.982703     -0.375069
O       5.87319      7.74072      2.81720        -0.911661     -0.506043     -0.406627
O       5.69715      7.76011     15.77715         0.377307      0.293728      0.161225
O       5.77819      7.70302      7.07338        -0.626802      0.176820     -0.249174
O       5.77652      7.81045     11.47103        -0.789253     -0.974395     -0.015981
O       5.87559     11.49052      2.72409        -1.296619      1.378962     -0.066998
O       5.70005     11.52308     15.70141        -0.449781      1.013269      0.504600
O       5.78814     11.55353      7.17856        -0.586952     -0.187074     -0.703206
O       5.86983     11.56144     11.28501        -0.006998      0.500555      0.375394
O       9.62489      3.93672      2.80188        -0.469203      0.098384     -0.665630
O       9.48390      3.88111     15.74949         0.127373     -0.010148      0.117113
O       9.56907     15.47197      2.81968         0.391796     -0.032234     -0.146568
O       9.49781     15.41403     15.80686        -0.193737      0.444485     -0.470227
O       9.58721      3.99442      7.02743        -0.064249      0.185581      0.469104
O       9.59044     15.46474      7.00529        -0.004801     -0.136520      0.341821
O       9.49306      3.97279     11.37358         0.309336     -0.881004      0.316369
O       9.76250     15.43328     11.53819        -0.310350      0.444022     -0.459693
O       9.64527      7.78045      2.67311         0.320777      0.142516     -0.041581
O       9.61682      7.80015     15.70183         0.128392     -0.834890      0.760478
O       9.73568      7.84264      7.05631        -0.652026     -1.132080      0.195215
O       9.57653      7.77744     11.47339         0.139230      0.572212     -0.092734
O       9.55131     11.58052      2.84118         0.694532      0.219126     -0.373096
O       9.63252     11.56453     15.75093         0.158538      1.147224      0.637939
O       9.75850     11.59772      6.95590        -0.716491      0.436107      0.264769
O       9.51004     11.60516     11.38366        -0.260650      0.347587      0.104265
