  # total energy = -7881.64323939 
CRSYTAL
PRIMVEC
    15.3600000000000000    0.2300000000000000    0.0000000000000000
     0.0000000000000000   15.3600000000000000    0.0000000000000000
     0.0000000000000000    0.0000000000000000    17.440000000000000
PRESSURE
1.5344 1.7812 -0.591832 -0.182153 0.282434 -1.59474
PRIMCOORD
320 1
Pb       3.71606      3.73683      4.54570         0.206531      0.437974     -0.285975
Pb       3.86499      3.90998     17.35067         0.240801      0.378994     -0.231433
Pb       3.73554      0.12350      4.31022         0.146692     -0.172493      0.305617
Pb       3.79867      0.09871     17.35797         0.230890     -0.361154      0.289599
Pb      15.17903      3.90688      4.20694         0.859133      0.350749      1.024231
Pb      15.28594      4.09170     17.19885        -0.231007     -0.329852      0.821684
Pb       0.03916     15.25195      4.29977        -0.023703     -0.050475     -0.229887
Pb       0.02470     15.34622     17.31954        -0.173472      0.125817      0.152978
Pb       3.81655      3.94342      8.77642         0.002521     -0.247054      0.183019
Pb       3.82515     15.39630      8.75732         0.137430      0.201435     -0.084081
Pb      15.32327      4.07404      8.73876         0.082806      0.425320      0.089294
Pb      15.32282      0.32995      8.71185        -0.065531     -0.461291      0.425149
Pb       3.77356      3.95668     12.98439         0.158726     -0.372010      0.154036
Pb       3.94353     15.40364     13.00548        -1.074110      0.365174      0.433353
Pb       0.04263      3.87317     13.00217         0.335386     -0.155744      0.794813
Pb       0.03869     15.31399     13.07976         0.072455     -0.048087     -0.280516
Pb       3.73158      7.63672      4.39436         0.650800      0.211709     -0.213597
Pb       3.90565      7.78440     17.40520         0.139459     -0.232572      0.014730
Pb       0.08032      7.63481      4.25811        -0.378636     -0.021893      0.110311
Pb       0.08415      7.72158     17.42616        -0.267271     -0.107895     -0.470992
Pb       3.68595      7.85723      8.61533         0.565539     -0.761867      0.899675
Pb      15.35975      7.97617      8.67428        -0.287361     -0.438922      0.195447
Pb       3.88133      7.98521     13.09210        -0.217777     -1.025638     -0.151685
Pb      15.30361      7.94186     13.02166         0.262895     -0.511442      0.509148
Pb       3.83280     11.70085      4.40980         0.199543     -0.447795      0.369353
Pb       3.80207     11.66283     17.36642         0.647491     -0.663483      0.766935
Pb      15.29440     11.82566      4.31425         0.164986     -0.135107      0.234858
Pb       0.00101     11.34800      0.05136         0.001223      0.313561     -0.057870
Pb       3.66414     11.67027      8.63767         0.533705     -0.893853      0.286730
Pb      15.15187     11.69577      8.75271         0.725623      0.159722     -0.841080
Pb       3.82997     11.60007     13.12570         0.118994      0.319376     -0.448886
Pb       0.00723     11.48800     13.16871        -0.040088      0.284022     -0.714341
Pb       7.60232      3.91609      4.40665         0.028435      0.081501      0.031554
Pb       7.67657      3.82373     17.38147        -0.213680      0.445294     -0.281075
Pb       7.48368      0.25469      4.38825         0.853590     -0.567447      0.058405
Pb       7.47842     15.41418     17.26587         0.808121     -0.188981      0.697297
Pb       7.69763      4.04921      8.76739        -0.189712     -0.043877     -0.280568
Pb       7.53474      0.21225      8.73609         1.018667     -0.679255      0.254034
Pb       7.68862      3.83261     13.04063        -0.190607      0.150088     -0.102419
Pb       7.68462     15.47214     13.01026         0.449532     -0.315655     -0.083415
Pb       7.66887      7.83469      4.28004         0.107622     -0.116195      0.377664
Pb       7.68949      7.86418      0.00713        -0.212888     -0.558278     -0.208747
Pb       7.64991      7.69340      8.54358        -0.202296     -0.029962      0.808708
Pb       7.67525      7.71596     13.00034         0.113509      0.826366     -0.032781
Pb       7.63956     11.59544      4.20474        -0.251058     -0.083117      1.175732
Pb       7.85290     11.63863     17.42133        -0.900746      0.069889     -0.246520
Pb       7.59189     11.61597      8.56870         0.122519     -0.241623      0.871080
Pb       7.70781     11.41366     12.91987        -0.114870      0.968692      0.729081
Pb      11.51578      3.86270      4.21981        -0.211178      0.040377      0.465864
Pb      11.47581      3.96221     17.32034         0.354733     -0.039791     -0.053221
Pb      11.43328      0.17714      4.21873         0.199374      0.112380      0.719677
Pb      11.54400     15.38957     17.37504        -0.364009      0.497710     -0.153507
Pb      11.58622      4.14954      8.64770        -0.295127     -0.330720      0.421499
Pb      11.55710     15.45254      8.76423        -0.658835      0.302876     -0.301232
Pb      11.66710      4.00583     13.06851        -0.321445      0.199019      0.382855
Pb      11.48204     15.22757     13.13234        -0.003829      0.377260     -0.206243
Pb      11.51145      7.82027      4.28999        -0.365236     -0.023091      0.274033
Pb      11.57999      7.83113     17.41307         0.004400     -0.802002     -0.296223
Pb      11.43873      7.88712      8.60583         0.135444     -0.329481      0.551359
Pb      11.55973      7.73001     12.97652         0.002744      0.204542      0.114781
Pb      11.40919     11.80899      4.46866         0.315660     -0.583836     -0.199611
Pb      11.59428     11.59050      0.03414         0.167519      0.252036     -0.147576
Pb      11.47266     11.58939      8.57868         0.252418      0.399695      0.258478
Pb      11.45488     11.55234     13.16270        -0.091288      0.532178     -0.454323
Ti       1.88568      2.01630      2.22896         0.414798     -1.828855      0.314425
Ti       1.89592      1.97907     15.45823         0.048034     -0.948901     -1.337233
Ti       2.02054     13.46783      2.30570        -1.247110     -0.359650     -0.515373
Ti       1.91523     13.41933     15.46902         0.263738      0.348295      0.609919
Ti      13.47341      2.03051      2.24105        -0.167414     -0.206841     -1.532394
Ti      13.38205      2.05201     15.31576         0.083466      0.510955      0.086109
Ti      13.41516     13.58169      2.31784         0.196739     -0.383747      0.070550
Ti      13.46973     13.57653     15.38371         0.074233      0.043723     -0.039033
Ti       1.82118      1.94892      6.78186         1.394727      0.284645     -0.549463
Ti       1.86025     13.55911      6.82572        -0.231921     -2.014374     -0.941060
Ti      13.37660      2.11280      6.72637        -0.651029      0.120271     -1.457737
Ti      13.39475     13.66516      6.65419         1.108012     -1.044385      0.413681
Ti       1.90472      1.85475     11.18509         0.859389      0.635930     -1.760888
Ti       1.90033     13.32786     10.94703        -0.115784      1.418308      0.048532
Ti      13.40741      2.05552     11.15422         0.637782     -0.305501      0.208702
Ti      13.45887     13.52559     11.02214         0.161992      0.628289      0.080195
Ti       1.91894      5.71569      2.28256         0.463363      0.474741     -0.881794
Ti       1.96778      5.79550     15.42800        -0.464778      0.858861      0.096827
Ti      13.40607      5.87721      2.35651        -0.308287      0.119177     -1.461268
Ti      13.42569      5.92987     15.40654        -0.056283     -0.199809     -0.410427
Ti       1.88850      5.73467      6.74465        -0.731932     -0.094772     -0.036285
Ti      13.39847      5.96779      6.48441         0.817508     -0.554805      1.143002
Ti       1.92847      5.83162     11.03876        -0.176572     -0.440953     -0.803616
Ti      13.52051      5.86980     11.08807        -0.861358      1.318779     -0.054449
Ti       1.94620      9.63776      2.39190         0.126533      0.820842     -0.748912
Ti       1.95080      9.64359     15.35724        -0.713085     -0.929614      0.219958
Ti      13.47864      9.73608      2.39401         0.324716      1.120682     -0.259665
Ti      13.38495      9.80311     15.30947         1.176075     -0.971635      1.039929
Ti       1.89905      9.61533      6.56015        -0.778943      1.067453      1.853620
Ti      13.40513      9.69578      6.61756         0.877107      1.631385     -0.864547
Ti       1.86003      9.56313     11.00742         0.044593      0.052777     -0.346050
Ti      13.41734      9.81528     10.99929         0.091408     -1.013796      0.150808
Ti       5.73156      2.00669      2.27507        -0.298042     -0.709844      0.796760
Ti       5.70300      1.99018     15.28231         0.520946      0.123212     -0.060703
Ti       5.73133     13.52435      2.42598         1.154563     -0.061470     -2.120986
Ti       5.73305     13.51819     15.28598         0.285404     -0.911084      0.729594
Ti       5.67989      2.01483      6.74296         0.215819      0.691411     -0.221220
Ti       5.79019     13.50438      6.81135        -0.030776     -0.960940     -0.264685
Ti       5.82718      2.00915     11.04708        -1.570020      0.417742      0.789426
Ti       5.75234     13.49827     11.05848        -0.032667     -0.337631     -1.674324
Ti       5.71012      5.81489      2.38606        -0.104625     -0.027946     -0.661869
Ti       5.78445      5.83038     15.32557        -0.054897     -0.193721     -0.197994
Ti       5.68549      5.83930      6.65162         0.851339     -0.710732      0.671646
Ti       5.76202      5.87929     11.17261        -1.250105     -0.189026     -0.743028
Ti       5.72068      9.58292      2.37388         0.009030      0.961832     -1.297071
Ti       5.73597      9.69415     15.36330         0.502182      0.387545     -0.014393
Ti       5.72858      9.62687      6.69872        -0.418817      0.763618     -0.431376
Ti       5.71089      9.68414     10.97164         0.839831      0.449267     -0.997506
Ti       9.56571      2.04750      2.27081         0.235468     -1.347957      0.044766
Ti       9.56055      2.00833     15.31308        -0.468396     -0.642000      0.927409
Ti       9.55837     13.55341      2.41635        -0.297454      0.470296      0.580892
Ti       9.60779     13.51178     15.43355        -0.363187      0.925316     -2.210405
Ti       9.54547      2.11346      6.79961         0.193053     -0.562512     -0.697870
Ti       9.64946     13.64514      6.72240        -1.532914     -0.093567      0.893186
Ti       9.70771      2.05565     11.01507        -0.940190     -0.773432     -0.421955
Ti       9.56877     13.55070     10.99122         0.300814      0.531584     -0.166373
Ti       9.53109      5.77685      2.32052         0.135291      1.245890     -0.754044
Ti       9.53068      5.82398     15.36651         0.746479      0.553941      0.028069
Ti       9.61630      5.89234      6.67102        -0.940537     -0.593703      1.074030
Ti       9.55718      5.82279     11.17108         0.865759      0.822325     -1.207915
Ti       9.70928      9.65988      2.33696        -0.959139      0.328958      0.444381
Ti       9.64824      9.67309     15.42754        -0.559183     -0.133711     -0.928012
Ti       9.54723      9.71793      6.69554         0.294484     -0.014752     -1.677231
Ti       9.63657      9.73404     10.97110        -0.602545     -0.550746     -0.612430
O       1.73161      1.79236      0.51090         0.487466      0.631482     -1.089461
O       2.09759      1.86073     13.70740        -0.705327      0.191362     -0.014719
O       2.01945     13.33680      0.51929        -0.142908      0.486479      0.675745
O       1.97527     13.35191     13.74421        -0.069980     -0.309676     -0.991931
O      13.49185      2.20634      0.44265        -0.291948     -0.643529      0.961062
O      13.36843      2.05346     13.55150         0.117200     -0.073099     -0.128622
O      13.39138     13.50683      0.54246        -0.351843      0.249722      0.018051
O      13.45856     13.54064     13.61099         0.305829      0.251481      0.460912
O       2.05785      1.87843      4.99071        -0.637667      0.404726      0.226323
O       1.94624     13.50970      5.03092        -0.118373      0.250941     -0.250225
O      13.33208      2.15668      4.91266         0.499279     -0.111510      1.206558
O      13.47329     13.57496      4.88463        -0.091198      0.312450     -0.146285
O       1.82673      1.92608      9.34047         0.115520     -0.230717      0.589851
O       1.87491     13.32894      9.14561         0.168167      0.850858      0.618038
O      13.59833      2.18552      9.40425        -0.330117     -0.399512     -0.685682
O      13.47575     13.50963      9.21682        -0.359932      0.548509      1.303346
O       1.94218      5.76651      0.47648         0.072453     -0.214664      1.073279
O       1.92716      5.95432     13.72551         0.140480     -0.512004     -0.834329
O      13.36452      5.90383      0.51781         0.014236     -0.277819      1.405312
O      13.36549      5.90446     13.63306         0.166696      0.091686     -0.139294
O       2.02883      5.67020      4.94667        -0.271385      0.465519      0.699374
O      13.38424      5.90541      4.71017         0.195339     -0.248520      0.516105
O       1.77380      5.75899      9.22098         0.424967      0.091184      0.836942
O      13.36372      5.79457      9.34034         0.271913      0.215824      0.072003
O       1.82039      9.76410      0.56133         0.011826     -0.609904      1.040242
O       1.85160      9.65260     13.57630         0.403035      0.348325     -0.108721
O      13.69181      9.84076      0.58727        -0.930884     -0.341007      0.693724
O      13.26345      9.79547     13.58100         0.588221     -0.122255     -0.801412
O       1.96600      9.53845      4.81379        -0.307186      0.087212     -0.187915
O      13.36139      9.79685      4.82237         0.205046     -0.272955      0.902790
O       1.81560      9.37028      9.24002         0.223748      0.689093      0.966058
O      13.45459      9.79084      9.21824        -0.354774      0.084039      0.410711
O       5.86489      1.68962      0.56186        -0.467306      1.123077     -0.275101
O       5.61688      1.96454     13.50982         0.696047      0.161406      0.555555
O       5.83990     13.63677      0.59923        -0.530625     -0.373228      1.193327
O       5.64209     13.45311     13.52975         0.105503     -0.074173     -0.465104
O       5.56572      2.01232      4.92187         0.624395     -0.214500      0.667630
O       5.79249     13.39900      5.06393        -0.218427      0.535719     -1.129643
O       5.66358      2.07575      9.30509         0.192875     -0.283013     -0.763141
O       5.73808     13.48622      9.20850        -0.108450      0.327184      1.666447
O       5.78576      5.89402      0.60275        -0.180804     -0.302722      0.445355
O       5.68238      5.78602     13.52158         0.539873      0.338119      0.931430
O       5.53669      5.80976      4.92566         0.363524      0.099347     -0.950405
O       5.86298      5.87888      9.42299        -0.243662     -0.182429     -0.548751
O       5.79098      9.54131      0.54135         0.033742      0.129880      0.666531
O       5.73841      9.68258     13.57679        -0.237432      0.218041      0.342623
O       5.63493      9.58026      4.94480         0.241189      0.031864     -0.278677
O       5.80864      9.68579      9.19964        -0.136632     -0.586927      0.232507
O       9.62401      1.90804      0.53516        -0.194581      0.522525     -0.019377
O       9.45100      2.01447     13.58160         0.273408     -0.019421     -0.690992
O       9.70988     13.54708      0.68712        -0.367668     -0.544887     -1.305196
O       9.66655     13.48103     13.60784        -0.042653      0.346082      1.093308
O       9.55843      2.18663      5.00608        -0.026522     -0.255749      0.140060
O       9.65712     13.55746      4.99231        -0.262771      0.097682     -1.027972
O       9.64900      2.03758      9.24797        -0.047270     -0.152565      0.259204
O       9.45610     13.82000      9.23798         1.113405     -0.925876      0.531651
O       9.47541      5.92222      0.54626         0.289713     -0.597122      0.733871
O       9.60441      5.83695     13.57101        -0.413060      0.096815      0.265991
O       9.56406      6.00405      4.99806         0.135149     -0.438256     -2.652150
O       9.63855      5.85072      9.38849        -0.054527      0.280789     -0.175810
O       9.57724      9.78648      0.53540         0.089653     -0.042018      0.198443
O       9.71428      9.72580     13.64472        -0.186192      0.070961      0.741434
O       9.73823      9.56397      4.87061        -0.336064      0.234575      1.045208
O       9.55047      9.66737      9.17357         0.432690     -0.030066      0.321661
O       3.81439      1.78794      2.49135         0.075543      0.530937      0.333240
O       3.87409      1.97085     15.86577        -0.421814      0.033240      0.254244
O       3.88761     13.45320      2.80233        -0.820094      0.580035     -0.057454
O       3.86684     13.44435     15.94191        -0.401514      0.686709     -0.802925
O       0.02965      1.91167      2.68679        -0.359908     -0.397596      0.357496
O      15.31639      2.12617     15.74105         0.448499     -0.063432     -0.179435
O      15.33083     13.53191      2.62387         0.598469      0.860490      0.414080
O       0.01659     13.32898     15.75930        -0.430050      0.240317      0.098414
O       3.81173      2.07837      7.13767         0.393045     -0.467435      0.280296
O       3.83549     13.41858      7.21901        -0.253922      0.652985     -0.331898
O      15.32985      2.12560      7.09853        -0.394060     -0.087972     -0.084674
O      15.35685     13.61884      7.07865        -0.295101      0.617661      0.034330
O       3.80940      1.99133     11.50940         0.117451      0.231146     -0.336952
O       3.80394     13.32039     11.44653         0.218141      0.157248     -0.298680
O       0.02693      1.89929     11.56059        -0.285914     -0.325606      0.321756
O       0.04279     13.50692     11.47902        -0.403669     -0.235624      0.035515
O       3.82851      6.02361      2.69647        -1.047762     -1.026300     -0.270357
O       3.88434      5.79080     15.79978         0.004503     -0.403510      0.298749
O       0.04836      5.65188      2.73925        -0.171548     -0.135919     -0.168933
O       0.00395      5.70557     15.81785        -0.038846      0.123192     -0.245812
O       3.88812      5.66596      7.14349        -1.667723      0.691525      0.078300
O      15.30625      5.97610      7.10013        -0.036628     -0.142481     -0.783825
O       3.75487      5.80375     11.40758         1.165962     -0.021791      0.077133
O       0.05842      5.76092     11.60082        -0.572184      0.070246     -0.474986
O       3.83048      9.64488      2.66633        -0.331608     -0.254097      0.078089
O       3.85270      9.59185     15.77184        -0.467221      0.006351     -0.245060
O      15.33334      9.91390      2.84951         0.739547     -0.380539     -0.185660
O      15.25833      9.74401     15.77573         0.806629      0.558010     -0.186394
O       3.75561      9.52246      7.06666         0.095480      0.459410     -0.334618
O      15.33111      9.89974      7.14497        -0.457677     -0.822803     -0.866370
O       3.86226      9.72443     11.37083        -1.110148      0.152738      0.251681
O      15.34299      9.61894     11.42739        -0.010800      1.129344     -0.191804
O       7.70150      1.98225      2.68547        -0.749001      0.443130      0.344200
O       7.59218      2.03181     15.71071         0.332215     -0.439070      0.091968
O       7.62501     13.51997      2.71301         0.827384     -0.085560      0.537134
O       7.62561     13.41267     15.65765         0.336010     -0.073449      0.492188
O       7.60601      2.03818      7.19766         0.262342     -0.098033     -0.377492
O       7.67167     13.41532      7.19417         0.440240      0.830525     -0.605746
O       7.69842      1.88231     11.40975         0.023997      0.330695      0.037411
O       7.75509     13.71040     11.36950        -1.328579     -0.424815      0.312066
O       7.60264      5.82098      2.86094         0.989825      0.194641     -0.166219
O       7.69071      5.79576     15.88066        -0.621161      0.672119     -0.638860
O       7.67584      5.73279      7.07429         0.047456      1.087908      0.126990
O       7.62028      5.85955     11.40768         1.145544      0.326247      0.886641
O       7.70245      9.60431      2.75597         0.222916      0.023974     -0.291053
O       7.67492      9.62268     15.63837         0.300051      0.620679      0.634158
O       7.67149      9.71379      6.94175         0.089646     -0.628870      0.140707
O       7.67462      9.67514     11.53157         0.223657     -0.516948     -0.636590
O      11.60343      2.02462      2.64883        -1.424798      0.402161      0.085823
O      11.41608      1.96543     15.67316         0.433810      0.424486      0.291673
O      11.44213     13.62304      2.80228         0.803368     -0.490613     -0.058060
O      11.54033     13.64845     15.71069        -0.006392      0.113677      0.496398
O      11.49589      2.04291      7.13645         0.948937      0.034713      0.104941
O      11.52225     13.60683      7.02250        -0.083378      0.195570      0.573325
O      11.51843      2.22850     11.35794         0.656612     -0.208232      0.220587
O      11.62577     13.47856     11.56261        -0.636967      0.081872     -0.851177
O      11.46113      5.84683      2.72512         1.078269     -0.417961     -0.266209
O      11.50762      5.79233     15.79362        -1.098407      0.197921      0.196433
O      11.48274      5.98550      7.08639         1.628881     -0.500884     -0.214821
O      11.53020      5.87035     11.55585        -0.113244     -0.139041     -0.392896
O      11.55828      9.87606      2.63278         0.119725     -0.902149     -0.184017
O      11.59212      9.77023     15.84779        -1.228174     -0.547355      0.442032
O      11.54315      9.82922      7.06282         0.048535     -0.831532      0.186218
O      11.51979      9.83604     11.39666         0.272464     -0.374441     -0.288902
O       2.05192      3.79729      2.72172        -0.149411      1.195176     -0.266538
O       1.95666      3.83566     15.71452         0.083353      0.370081      0.554428
O       1.86085     15.37404      2.71788         0.116272     -0.535860      0.131107
O       1.87249     15.33997     15.78724         0.182935      0.038531      0.327064
O      13.49854      3.89224      2.67584        -0.597494      1.442344      0.064948
O      13.38433      3.96050     15.66548        -0.055719     -0.049116      0.535418
O      13.37499     15.51954      2.72024         0.783165     -0.361089     -0.241643
O      13.43415      0.22296     15.80829         0.257510     -1.282582     -0.063840
O       1.90169      3.84270      7.19260        -0.190893      0.181547     -0.291396
O       1.98795      0.06180      7.07315        -0.257043      0.245287      0.705290
O      13.47867      4.08932      7.07022        -0.519925     -0.620321     -0.377175
O      13.48001     15.50194      7.10960        -0.191729      1.395181      0.204625
O       1.91503      3.91068     11.51866        -0.279101     -0.431817     -0.111893
O       2.03456     15.32857     11.47620        -0.533598     -0.164542     -0.168548
O      13.52632      4.05279     11.57976        -0.118225     -0.901785     -0.176829
O      13.41267     15.51268     11.46853        -0.064197      0.018607     -0.294277
O       1.81305      7.74710      2.67284         0.029883     -0.762582     -0.055891
O       1.86091      7.76357     15.72333         0.370089     -0.352116      0.784057
O      13.55570      7.77404      2.67564        -0.455824      0.661909     -0.078743
O      13.37950      7.73622     15.76718        -0.146637      1.774225      0.312531
O       1.78336      7.68112      7.22617         0.804786     -0.374191     -1.561885
O      13.47053      7.84269      6.90976        -0.451543      0.033333      0.081908
O       1.96067      7.69410     11.47348         0.042514      0.631721      0.083800
O      13.50596      7.80488     11.45055        -0.932187      0.616851     -0.125711
O       2.05354     11.62354      2.83011        -0.692823     -0.633823     -0.187676
O       1.96335     11.46291     15.84246        -0.222532      0.521996     -0.240086
O      13.46172     11.69142      2.76162        -0.573032      0.339939     -0.175757
O      13.36780     11.67860     15.68774         0.142520      0.234291      0.281262
O       1.84178     11.50457      7.09810         0.713178     -0.628422     -0.426672
O      13.41452     11.77805      7.16928        -0.226642     -0.847714     -0.551099
O       1.75978     11.53892     11.24757         0.110957     -1.469979      0.777491
O      13.55671     11.64899     11.50270         0.326876      0.114464     -0.384135
O       5.71585      3.89792      2.80265        -0.291524     -0.459383     -0.573365
O       5.85042      3.88134     15.79872        -0.852507      0.360526      0.071059
O       5.74740     15.43904      2.89191         0.093717      0.112624     -0.221998
O       5.73399     15.41800     15.65686        -0.123527     -0.059988     -0.017202
O       5.86175      3.93951      6.99929        -0.581219     -0.925391      0.421361
O       5.80713     15.36543      7.15652        -0.760285      1.738340     -0.256622
O       5.77995      3.89806     11.49031         0.068062      0.032890     -0.101687
O       5.60638      0.10051     11.44578         0.794120     -0.851188     -0.521509
O       5.71884      7.75619      2.75818         0.400823     -0.324939      0.325349
O       5.67274      7.69141     15.74351         0.592678      0.425553     -0.075179
O       5.72409      7.69555      7.08273         0.317676      0.500403      0.065452
O       5.70801      7.84726     11.51285         0.218837     -0.975442      0.014511
O       5.78416     11.56542      2.76527        -0.243442     -0.089388     -0.121620
O       5.61682     11.61344     15.70919         0.574550     -0.953379      0.020042
O       5.76675     11.52715      7.07862        -0.558047     -0.320553      0.206984
O       5.88146     11.62596     11.23826         0.037565     -0.055347      0.881039
O       9.60093      3.93157      2.70873        -0.171046     -0.351051     -0.055316
O       9.42053      3.93973     15.75583         0.900624     -0.541630      0.087681
O       9.54982     15.47695      2.85350        -0.039560      0.285423     -0.359529
O       9.43141     15.41109     15.84138         0.798383      0.215561     -0.581871
O       9.58536      3.97893      7.10057         0.301734      0.139450      0.377528
O       9.54584     15.49691      7.12172         0.115569      0.227481     -0.096502
O       9.53775      3.96216     11.33186        -0.390989     -0.474342      0.761160
O       9.74417     15.46470     11.48093         0.180140      0.170017      0.070902
O       9.78496      7.71662      2.66794        -0.918240      1.019945     -0.035436
O       9.60305      7.77163     15.84328         0.425586      0.298981     -0.205961
O       9.67350      7.77219      7.02380        -0.499478      0.955882      0.700846
O       9.59482      7.88482     11.42317         0.135452     -0.950689      0.298719
O       9.57595     11.55262      2.93949         0.163747      0.731197     -1.148396
O       9.74488     11.65642     15.78216        -0.566435     -0.893092      0.685792
O       9.65003     11.60429      7.04673        -0.077590      0.258700      0.015838
O       9.56673     11.61689     11.41651        -0.043239      0.401120     -0.237468
