  # total energy = -7880.96050099 
CRSYTAL
PRIMVEC
    15.3600000000000000    0.2300000000000000    0.0000000000000000
     0.0000000000000000   15.3600000000000000    0.0000000000000000
     0.0000000000000000    0.0000000000000000    17.440000000000000
PRESSURE
0.746559 0.769066 -0.105294 -0.101047 -0.075925 -1.58925
PRIMCOORD
320 1
Pb       3.87656      3.84067      4.23512         0.020254      0.215681     -0.161283
Pb       3.72839      3.94053     17.31130         0.615754      0.104479      0.387423
Pb       3.70377     15.38604      4.54307        -0.287471      0.173881     -0.897028
Pb       3.71310     15.29841      0.00296         0.549376      0.262024     -0.375677
Pb       0.16150      3.74607      4.17134        -0.791523      0.026317      0.944921
Pb       0.02000      3.71193     17.27997        -0.548562      0.452020      0.336970
Pb      15.27182      0.27695      4.43680         0.563526      0.193052     -0.457538
Pb      15.26261     15.46600     17.30930        -0.032934      0.521913      0.330594
Pb       3.88400      3.92073      8.63598        -0.233073      0.127493      0.331242
Pb       3.73546      0.17776      8.84625         0.157756     -0.520859     -0.292454
Pb       0.09956      4.27168      8.78394        -0.394855     -1.518987      0.029790
Pb       0.08588     15.27457      8.73240        -0.770495      0.344980     -0.477002
Pb       4.07820      4.00040     13.02160        -0.718694     -0.134745     -0.534498
Pb       3.82429      0.20978     13.13002        -0.116866     -0.490739     -0.668496
Pb      15.34045      4.14479     12.99281         0.060485      0.156295     -0.288377
Pb      15.34269      0.31293     13.09708        -0.122425     -0.687585     -0.526626
Pb       3.89414      7.73738      4.37613        -0.045237      0.066726     -0.361039
Pb       3.79758      7.84002     17.36300         0.511452     -0.575578      0.378986
Pb      15.16867      7.69938      4.30271         0.491821      0.664557     -0.086288
Pb      15.33098      7.91958     17.31483        -0.112401     -0.260753      0.285867
Pb       3.68700      7.67276      8.53795         0.219531      0.396543      0.245537
Pb      15.16124      8.04531      8.70649         0.619508     -0.203810     -0.013317
Pb       3.86658      7.76472     12.90025         0.038459     -0.154204     -0.050352
Pb       0.02143      7.69227     13.01248        -0.222082     -0.050672      0.022042
Pb       3.86715     11.54532      4.17004        -0.303460     -0.279868      0.721805
Pb       3.80357     11.62934     17.39114         0.411223     -0.503348      0.346966
Pb       0.05133     11.59555      4.21896        -0.111019     -0.936706      0.096949
Pb       0.18334     11.51145      0.10598        -0.362738     -0.363079     -0.573745
Pb       3.62234     11.56739      8.58356         0.575655     -0.204298      0.109174
Pb      15.26807     11.78361      8.52284        -0.440665     -0.129357      0.239600
Pb       3.84385     11.50537     12.90842        -0.223882      0.388161      0.236744
Pb       0.04305     11.35349     13.05278        -0.014235      0.662002     -0.551137
Pb       7.53571      3.77328      4.35644        -0.027631      0.713229     -0.434739
Pb       7.52952      3.98717     17.39743         0.523511     -0.043564     -0.072338
Pb       7.41516     15.45021      4.42105         0.722155      0.065402     -0.588073
Pb       7.69384      0.21432     17.41426        -0.033193     -0.483465     -0.156060
Pb       7.58988      4.05689      8.59312         0.775107     -0.454542      0.347594
Pb       7.67166     15.44624      8.75002         0.667675     -0.025385     -0.336389
Pb       7.68597      3.85072     13.00367         0.365586     -0.148782     -0.381054
Pb       7.62224     15.19240     13.16410         0.161538      0.854682     -0.366412
Pb       7.76450      7.63799      4.43567        -0.882356      0.484032     -0.018121
Pb       7.79998      7.81810      0.19932        -0.781930     -0.119819     -0.746751
Pb       7.86184      7.89086      8.58522        -0.737199      0.122438      0.319040
Pb       7.61801      7.81523     13.00369        -0.215948      0.025105      0.208400
Pb       7.72388     11.93336      4.47682        -0.369674     -1.154311     -0.333578
Pb       7.68724     11.51323      0.07630        -0.478311      0.454780      0.091799
Pb       7.55608     11.77907      8.83686         0.731353     -0.925507     -0.818338
Pb       7.75835     11.60546     13.23947        -0.654557     -0.612863     -0.811315
Pb      11.49550      4.03217      4.43821         0.045149     -0.127228     -0.616217
Pb      11.44828      3.88415      0.05029         0.075418     -0.250203     -0.598979
Pb      11.61889      0.27612      4.24284        -0.715876     -0.425459     -0.150059
Pb      11.36832     15.26426      0.08858         0.681985      1.119381     -0.204489
Pb      11.48928      3.96995      8.75667         0.084678     -0.046067     -0.233749
Pb      11.59696      0.17771      8.76120        -0.198535     -0.058326     -0.438271
Pb      11.50138      3.94132     13.10989        -0.629530      0.024667     -0.163150
Pb      11.61646     15.30534     12.98196        -0.393042      0.502598      0.368885
Pb      11.37192      7.93499      4.20288         0.683682     -0.290996      0.524560
Pb      11.56233      7.68781      0.00420         0.214158      0.848364     -0.160033
Pb      11.50691      7.81117      8.55383         0.054559      0.273129      0.342412
Pb      11.44028      7.70237     13.11469         0.014661      0.272161     -0.199868
Pb      11.68855     11.59218      4.21419        -0.461783      0.458692      0.136766
Pb      11.59049     11.62681     17.37806        -0.085842     -0.228841      0.225218
Pb      11.35465     11.68061      8.46674         0.841854     -0.150121      1.006407
Pb      11.54676     11.57346     13.02426        -0.062467     -0.280282     -0.358413
Ti       1.91727      1.80680      2.21350        -0.079692      0.488171      0.653096
Ti       1.90039      1.86310     15.44599         0.424587      0.014927     -0.035275
Ti       1.89637     13.42062      2.25655         0.052190      0.061938      2.123840
Ti       1.89483     13.40253     15.27470         0.679251     -0.276694      0.212402
Ti      13.40516      2.10941      2.20866        -0.158873     -0.399459     -0.218304
Ti      13.28842      1.94363     15.37146         0.584146      0.536177      0.518440
Ti      13.44312     13.61602      2.21017        -0.205193     -0.295503      0.062792
Ti      13.48789     13.55895     15.37327        -0.005233      0.587091     -0.327217
Ti       1.88316      2.00254      6.76455        -0.754097     -0.222267     -0.381611
Ti       1.85593     13.49008      6.65103         0.221419      0.283658      0.306196
Ti      13.44170      2.18221      6.78636         0.409093     -0.482129      0.437862
Ti      13.34505     13.63158      6.45470         0.506873      0.118048      1.824694
Ti       1.89340      2.02699     11.01813         0.919935      0.141051      0.300129
Ti       1.89263     13.53486     10.99349         0.048510     -0.680754      0.587741
Ti      13.34944      2.05988     11.03469         0.059986      0.262689     -1.139584
Ti      13.46699     13.49702     10.99627         0.292788      0.454785     -0.367796
Ti       1.88922      5.77799      2.30142         0.387533     -0.162898     -0.033766
Ti       1.90025      5.74745     15.35376         0.119781      0.504326      1.295222
Ti      13.31910      5.86514      2.28590         1.012059      0.809942     -0.200508
Ti      13.41325      5.88743     15.42299         0.733534      0.009574      1.132978
Ti       1.88620      5.78149      6.54801         0.499387     -0.221428      2.453344
Ti      13.47553      5.92242      6.67453        -0.416108     -0.360279     -0.582947
Ti       1.89568      5.86983     10.97387         0.312510     -0.369032      2.894406
Ti      13.31745      6.00485     11.06928         0.035098     -0.732115     -0.560233
Ti       1.89590      9.48777      2.34990         0.322239      0.415669      2.230988
Ti       1.92783      9.58016     15.40890        -0.474915      0.559844     -0.536589
Ti      13.45660      9.72657      2.17771         0.563290      0.144704      0.929158
Ti      13.39700      9.82970     15.35288         0.298392     -0.995059      0.530185
Ti       1.84503      9.57900      6.57966         0.073361     -0.382441      0.265431
Ti      13.42506      9.70948      6.54123         0.276397      1.110279     -0.239253
Ti       1.80990      9.63940     10.84932        -0.265781      0.054776      0.111217
Ti      13.35479      9.69662     10.95820        -0.123930      0.488143     -0.152139
Ti       5.67187      1.91514      2.19092         0.245449      0.475104      0.494538
Ti       5.69556      1.91229     15.35842         0.087921      0.266116      1.509684
Ti       5.64391     13.55162      2.28283         0.228824     -0.150960     -0.501042
Ti       5.77572     13.45302     15.54073        -0.053691      0.407443     -0.656482
Ti       5.72449      1.93707      6.78672         0.075073      0.353132     -0.224812
Ti       5.69718     13.46195      6.69296         0.133034      0.007462      0.957204
Ti       5.78618      1.90933     10.97799        -0.548928      0.189704      0.159961
Ti       5.77240     13.42842     11.01994        -1.410703      0.585812      1.387412
Ti       5.76251      5.91367      2.27496        -0.154132     -0.598508     -0.428666
Ti       5.82919      5.86794     15.37971        -0.429872      0.357622      0.344412
Ti       5.74790      5.91724      6.70090        -0.465863     -0.749318     -0.779742
Ti       5.81932      5.83617     10.83113        -0.940507     -0.002114      0.776015
Ti       5.83360      9.67926      2.42794        -0.972008      0.120888     -1.006230
Ti       5.73825      9.69096     15.40337         0.046859      0.043589     -0.090118
Ti       5.78042      9.69217      6.62398        -0.440880      0.164040     -0.432166
Ti       5.70865      9.69856     10.92501         1.239632      0.277284      0.200080
Ti       9.51113      2.03225      2.33993         0.163855     -0.197657     -0.338637
Ti       9.60522      1.98175     15.34261         0.003213      0.454550     -0.911010
Ti       9.56263     13.56233      2.31519         0.248850      0.618887      1.563859
Ti       9.65872     13.49819     15.45072        -0.710994      0.419678      1.619263
Ti       9.56884      2.03385      6.63064         0.414393     -0.439449      2.439620
Ti       9.55300     13.55209      6.64005        -0.096603      0.413128     -0.398396
Ti       9.68905      1.97648     11.04107        -1.080116     -0.250907      0.344744
Ti       9.56718     13.46150     11.13061         0.139031      0.673073     -1.291706
Ti       9.54686      5.88669      2.38606        -0.510101     -0.769700      1.815404
Ti       9.66105      5.91909     15.47431        -0.937606     -0.886355     -0.443571
Ti       9.60268      5.87667      6.66102         0.200938     -0.090355     -1.008415
Ti       9.46199      5.91100     10.98199         1.426511     -0.678759      0.273643
Ti       9.51609      9.80946      2.37008        -0.270628      0.046001      1.064081
Ti       9.52745      9.76080     15.44406         0.722839     -0.700450     -0.368943
Ti       9.59490      9.75480      6.58454        -0.097391      0.462770      1.997003
Ti       9.58980      9.63698     10.99360        -0.757320      0.754837     -0.586161
O       1.90544      1.90152      0.44082        -0.217183     -0.210948      0.510493
O       2.05349      1.86998     13.68863        -0.463646      0.162967     -0.239375
O       2.00268     13.32654      0.54878        -0.358840      0.405901     -1.420416
O       1.83410     13.32697     13.52484         0.288610      0.269674      0.317080
O      13.31203      2.09983      0.44221         0.559313     -0.038222      1.137742
O      13.32551      1.72096     13.58241         0.156888      0.875217      0.851644
O      13.50869     13.55797      0.40977        -0.251755      0.030960      0.908066
O      13.52716     13.60805     13.57468        -0.351820     -0.097793      0.685732
O       1.90368      1.92204      4.95134        -0.058349     -0.049507      0.734515
O       1.85941     13.57396      4.88010        -0.065814     -0.181962      0.369778
O      13.44391      2.17561      4.99119        -0.056057     -0.240285      0.217862
O      13.51641     13.69840      4.68792        -0.295122     -0.030785      0.637255
O       2.03981      2.00573      9.25787        -0.397767     -0.268972      0.327462
O       1.80814     13.54155      9.20489         0.099079     -0.233424      0.077903
O      13.15101      2.18687      9.18844         0.638359     -0.542625      2.155432
O      13.43110     13.50009      9.21455         0.163568      0.158778      1.077813
O       1.98343      5.80515      0.53554        -0.210239     -0.009929      0.510273
O       1.71318      5.80748     13.64460         0.543693     -0.054041     -0.897604
O      13.32063      6.03349      0.51212         0.103311     -0.473560      0.673920
O      13.35203      5.93118     13.70281        -0.020877     -0.116887     -1.589287
O       1.76266      5.70744      4.87841         0.319355     -0.216387     -2.447045
O      13.54352      5.85691      4.90251        -0.572847     -0.143437      0.310171
O       2.02078      5.96029      9.30647        -0.516654     -0.400553     -2.319670
O      13.40105      5.95608      9.28709        -0.064610      0.308272      0.395555
O       1.97644      9.51335      0.64373        -0.117917      0.105263     -1.876871
O       1.81948      9.56074     13.62231         0.214348      0.054387      0.456897
O      13.43549      9.72783      0.42016        -0.000618      0.179728      0.264108
O      13.48595      9.79522     13.56446        -0.296018      0.168945      0.972980
O       1.80609      9.57502      4.82553         0.041345      0.154679      0.666071
O      13.60717      9.83409      4.78317        -0.712937     -0.239924      0.196158
O       1.74491      9.51194      9.06988         0.382471      0.229766      1.205323
O      13.36216      9.72171      9.17151        -0.039800     -0.266312      0.704252
O       5.80744      1.83059      0.42785        -0.243429      0.404100      0.812695
O       5.48928      1.95216     13.59750         0.521439      0.093328     -0.132799
O       5.54702     13.66435      0.48684         0.472431     -0.435689      1.144276
O       5.87473     13.45385     13.73209        -0.161263     -0.047466      0.724572
O       5.74250      2.07718      4.98562         0.001780     -0.450028      0.825775
O       5.80783     13.46648      4.93826        -0.517965      0.508652     -0.386319
O       5.55036      1.89928      9.21731         0.742481      0.024540     -0.248158
O       5.82371     13.33218      9.29017         0.011556      0.407971     -0.818244
O       5.89192      5.91721      0.43555        -0.194824     -0.027554      1.578489
O       5.79495      5.78968     13.58980        -0.006842     -0.061367      0.701267
O       5.70119      5.82556      4.89683         0.183319     -0.093845      0.969919
O       5.81485      5.84592      9.04461        -0.042135      0.056676      1.344646
O       5.83354      9.68348      0.60117         0.214797     -0.340581      0.964398
O       5.66933      9.77706     13.60448         0.108287     -0.294874      0.790713
O       5.61312      9.65980      4.83963         0.465696      0.019215      1.168175
O       5.84097      9.95940      9.18503        -0.414005     -0.824835      0.801990
O       9.54059      2.02060      0.54932         0.008261      0.025743      0.703243
O       9.68053      1.97000     13.52923        -0.336224     -0.003819      1.764684
O       9.76166     13.63008      0.57376        -0.614577     -0.523216     -0.193530
O       9.54776     13.55577     13.70848        -0.134802     -0.402281     -0.651847
O       9.51171      2.04814      4.91671         0.150891      0.054882     -0.818832
O       9.45749     13.44286      4.86362         0.417823      0.702409      0.277002
O       9.86763      2.04583      9.27067        -0.535283     -0.103531      0.760770
O       9.51785     13.52074      9.35931        -0.085276     -0.375295      0.154272
O       9.47976      5.87698      0.66719         0.316635      0.207069     -1.397846
O       9.77168      5.84151     13.70155        -0.583660      0.348595      0.763793
O       9.50648      5.99055      4.84009         0.598848     -0.515431      1.286777
O       9.40645      5.97508      9.22525         0.396907     -0.143416     -0.144262
O       9.43871      9.84991      0.63642         0.063576     -0.649591     -0.523283
O       9.60963      9.80704     13.66333        -0.086826     -0.303575      0.397614
O       9.57966      9.75691      4.89573         0.238817     -0.022460     -1.881984
O       9.66176      9.65410      9.19374        -0.284920     -0.079104      0.710936
O       3.78318      1.90118      2.73260         0.206563      0.386116     -0.365413
O       3.81432      1.94854     15.92488         0.148910      0.093943     -0.571915
O       3.74165     13.49534      2.76834         0.872148      0.017355     -0.085830
O       3.79913     13.40011     15.78811         0.111312      0.020885     -0.225956
O      15.35447      1.99075      2.79393        -0.594196      0.513878     -0.995852
O      15.31719      2.09235     15.76748         0.025165     -0.388704     -0.254419
O      15.34860     13.61990      2.54108        -0.324371      0.210608      0.215189
O       0.03835     13.50851     15.81539        -0.416450     -0.592245     -0.299150
O       3.82095      1.87777      7.09179         0.545717      0.285578      0.052468
O       3.81098     13.46461      7.20223        -0.113823      0.108837     -0.778927
O       0.04338      1.92728      7.28188        -0.329326     -0.041045     -0.592720
O      15.32867     13.78100      7.06535        -0.343071     -0.482204     -0.479813
O       3.80797      2.05545     11.39320        -0.396005     -0.106830      0.441816
O       3.79414     13.31317     11.34749         0.116324      0.198444     -0.047355
O      15.24614      2.13137     11.52543         0.547258      0.127981     -0.495112
O       0.01460     13.50294     11.54314        -0.599998     -0.273927     -0.825396
O       3.84499      5.84212      2.74560        -0.207205     -0.386425     -0.301214
O       3.85918      5.82567     15.75099         0.003282      0.003675     -0.212808
O      15.30237      5.86298      2.77261        -0.275149      0.593106     -0.928195
O       0.02978      5.65697     15.78491        -0.415953      0.401373      0.204725
O       3.77706      5.77201      7.04534         0.843350      0.302321     -0.122373
O       0.03360      5.79708      7.05903        -0.804060     -0.215053      0.345716
O       3.86148      5.85560     11.33120         0.507973     -0.073507      0.153872
O      15.29874      6.02393     11.37297        -0.496321     -0.344597      0.183908
O       3.88055      9.65051      2.79018        -0.769949     -0.623683     -0.178221
O       3.83583      9.70032     15.85872        -0.131025     -0.259029     -0.312028
O       0.00143      9.54869      2.68122        -0.861790      0.143161     -0.656376
O       0.03278      9.63046     15.93768        -0.518640     -0.095409     -0.627378
O       3.73601      9.59386      7.01648         0.324276      0.320157     -0.040345
O      15.24420      9.71425      7.15933         0.824185      0.395111     -0.773069
O       3.77886      9.53906     11.25602         0.224890      0.559576      0.062778
O      15.25450      9.72854     11.28421         1.089260     -0.171617      0.180255
O       7.60298      1.86335      2.74116        -0.499896      0.667312     -0.120877
O       7.66974      1.92925     15.60782        -0.165011     -0.025469      0.220555
O       7.61874     13.62143      2.77119        -0.490299      0.095059     -0.521426
O       7.72008     13.57029     16.00280         0.100954     -0.323075     -0.772953
O       7.69695      1.99589      7.21437        -0.254936      0.177292     -0.370570
O       7.69944     13.43078      7.06720        -0.995846      0.409363      0.254661
O       7.63871      1.94718     11.33878         0.132109      0.157510      0.064174
O       7.60960     13.49392     11.61117         0.496209     -0.259355     -0.445326
O       7.63661      5.90881      2.85007        -0.191487     -0.358518     -0.610816
O       7.71188      5.81739     15.83486         0.384165      0.180196     -0.263842
O       7.68603      5.91717      7.04729        -0.076603      0.016665     -0.219595
O       7.66417      5.72041     11.46108        -0.751022      0.163567     -0.081243
O       7.61974      9.70759      2.86732         0.756654     -0.054289     -0.318412
O       7.64295      9.85514     15.77663         0.424625     -0.286164     -0.033052
O       7.71074      9.76767      7.02375        -0.726134     -0.776843     -0.309065
O       7.64992      9.57022     11.47266        -0.473858      1.017741     -0.368009
O      11.48573      2.08076      2.73692         0.385793      0.223228      0.056569
O      11.51537      2.08629     15.84954        -0.516087     -0.218770     -0.346070
O      11.48683     13.53081      2.81810        -0.028032      0.179900     -0.685446
O      11.56719     13.55029     15.86333        -0.789040     -0.422719     -0.538688
O      11.49938      2.15666      7.11239        -0.274876     -0.016758     -0.716670
O      11.47246     13.58048      7.02777         0.922174     -0.106622     -0.700634
O      11.51481      1.92331     11.58698         0.221722      0.239016     -0.550119
O      11.45973     13.47323     11.46471         0.861204     -0.257140     -0.046664
O      11.44259      6.01502      2.84601         0.541035     -0.683975     -0.512714
O      11.54413      5.90450     15.85045        -0.793518      0.343974      0.358109
O      11.55564      5.95717      7.03608        -0.582333     -0.571754     -0.273963
O      11.35550      5.98843     11.44090         0.917732      0.203578     -0.079938
O      11.47662      9.78063      2.63934         0.050110      0.105899      0.029958
O      11.48335      9.76527     15.84647         1.035679      0.110185     -0.408538
O      11.56796      9.77696      7.03329        -0.908291     -0.062750     -0.502530
O      11.43956      9.62437     11.40518         0.497353      0.194741      0.317505
O       1.89646      3.80767      2.67392         0.350937     -0.260635     -0.366532
O       1.93227      3.84841     15.83087        -0.078984     -0.303702     -0.408912
O       1.94139     15.32861      2.74996        -0.268101      0.301981     -0.330617
O       1.99962     15.28572     15.77271        -0.527297      0.678629     -0.217719
O      13.35318      4.01245      2.60908        -0.087412     -0.452400      0.052731
O      13.42430      4.00795     15.90748        -0.143698     -0.517786     -0.733680
O      13.32765     15.49485      2.51419         0.219092      0.705273      0.487457
O      13.29095     15.44255     15.86371         0.801959      0.733765     -0.257661
O       1.99012      3.89937      7.20242        -0.517398     -0.266280     -0.492126
O       1.94349     15.38777      7.05308        -0.125148      0.006439      0.312375
O      13.50127      4.06077      7.27050        -0.179394      0.241730     -0.598267
O      13.41704     15.56074      7.12131        -0.127933     -0.302679     -0.581669
O       1.79311      3.96815     11.41251         0.155324     -1.090946      0.011457
O       2.01721      0.05886     11.34192        -0.439989      0.363012      0.159118
O      13.19210      4.05664     11.48840         0.983373     -0.496473     -0.270761
O      13.38073     15.45481     11.32018        -0.061926      0.365880     -0.168032
O       1.84956      7.63352      2.83233         0.198504     -0.315575     -0.433798
O       1.90545      7.73617     15.90821         0.123187     -0.695096     -0.685235
O      13.35519      7.86279      2.64776         0.225177     -0.153507      0.016275
O      13.44879      7.85224     15.74547        -0.025162      0.463075      0.118121
O       1.87470      7.61005      7.02749         0.076764      1.304876     -0.312402
O      13.37848      7.84650      6.95547         0.294471     -0.287439      0.202442
O       1.88038      7.72419     11.46085        -0.070167      0.464359     -0.054063
O      13.41837      7.84715     11.55393        -0.513964     -0.168341     -0.301786
O       1.90735     11.46762      2.68911        -0.159704      0.708196     -0.091443
O       1.89084     11.51116     15.79220        -0.200376      0.116004      0.107604
O      13.44108     11.69960      2.66600         0.057088     -0.334995     -0.375586
O      13.45105     11.73735     15.76258         0.117025     -1.015041     -0.155398
O       1.80989     11.51739      7.03256        -0.066005      0.286056     -0.390741
O      13.48418     11.69736      6.89746        -0.140248      1.039961     -0.275367
O       1.75878     11.53685     11.30975         0.336866     -1.244696     -0.208268
O      13.45785     11.57551     11.38166        -0.366175      0.781039      0.236885
O       5.75954      3.88633      2.66633        -0.074502     -0.362730     -0.225134
O       5.80266      3.91054     15.86089        -0.493717     -0.329029     -0.741671
O       5.58279     15.43919      2.82122         0.446416     -0.198789     -0.109020
O       5.65197     15.38635     15.84300         0.295270      0.568864     -0.582625
O       5.76559      3.93281      7.18260        -0.089361     -0.682120     -0.658258
O       5.88934     15.35727      7.14476        -0.612595      0.639219     -0.369956
O       5.76204      3.88321     11.34862         0.019951      0.540011      0.038840
O       5.59792     15.35807     11.37059         0.396817      0.206732      0.187954
O       5.74243      7.72277      2.80415         0.053879      0.223450     -0.416673
O       5.87907      7.84329     15.73925        -0.387648     -0.701886     -0.096216
O       5.68813      7.73792      7.10010         0.289851      1.121954     -0.419926
O       5.85099      7.72249     11.42683        -0.546462     -0.164216     -0.601171
O       5.65556     11.65070      2.67142         0.420946      0.297853     -0.157855
O       5.77250     11.59953     16.05533        -0.090543      0.044636     -0.832092
O       5.72365     11.57780      7.02823        -0.178504     -0.192278     -0.004331
O       5.77989     11.58316     11.55597         0.051785     -0.993736     -0.526741
O       9.54233      3.98507      2.79910         0.056313     -0.458903     -0.077378
O       9.69488      3.91524     15.86766        -0.605436      0.330564     -0.381505
O       9.55462      0.16246      2.73904         0.587135     -0.614769      0.004780
O       9.64704     15.42947     15.89170         0.052939      0.220754     -0.504391
O       9.55851      4.03178      7.08455         0.042770     -0.679797     -0.387771
O       9.59571     15.43046      7.12686        -0.189170      0.808611     -0.291436
O       9.64974      3.89088     11.54722        -0.264762      0.347556     -0.478401
O       9.50601     15.38493     11.35527         0.305380      0.323058      0.505314
O       9.46857      7.82380      2.82821         0.457936      0.502561     -0.734276
O       9.60732      7.87960     15.98088        -0.263977     -0.843787     -0.504069
O       9.65062      7.79597      7.06764        -0.274989      0.510513     -0.357776
O       9.39346      7.76755     11.45525         0.660788     -0.371149     -0.018457
O       9.41948     11.67785      2.72350         0.566492      0.003593     -0.116622
O       9.63523     11.57676     16.00040        -0.139768      1.445808     -0.679149
O       9.51176     11.65378      7.05427         0.791688     -0.478388     -0.148275
O       9.53472     11.52959     11.47642        -0.030610      0.324840      0.177844
