  # total energy = -7881.86501846 
CRSYTAL
PRIMVEC
    15.3600000000000000    0.2300000000000000    0.0000000000000000
     0.0000000000000000   15.3600000000000000    0.0000000000000000
     0.0000000000000000    0.0000000000000000    17.440000000000000
PRESSURE
1.42751 1.54641 1.19733 -0.082942 0.275213 -1.6132
PRIMCOORD
320 1
Pb       3.82982      3.95642      4.25616         0.119004     -0.469022      0.371748
Pb       3.81165      3.76310      0.09349        -0.215288      0.063249     -0.348269
Pb       3.93366     15.38789      4.31082        -0.091782     -0.334567     -0.014592
Pb       3.90186     15.37378      0.12502        -0.061229     -0.028926     -0.758528
Pb       0.04879      3.92590      4.31647        -0.511849     -0.056485      0.427195
Pb       0.03605      3.75109      0.04600        -0.002383      0.260388      0.698274
Pb      15.33200     15.50751      4.39370        -0.603332     -0.483181      0.268468
Pb      15.32469      0.25532     17.40461         0.305427     -0.294938      0.009529
Pb       3.79576      3.70119      8.52237         0.428464      0.421212      0.057859
Pb       3.85425      0.07411      8.54535         0.091019     -0.685961      0.383034
Pb      15.31038      3.93006      8.54423        -0.085619     -0.036824      0.433746
Pb       0.01232     15.22120      8.64022        -0.230872     -0.228312      0.016784
Pb       3.77412      3.71695     13.07894         0.051370      0.939977     -0.303168
Pb       3.76374     15.40216     13.07720         0.091227     -0.551136      0.116127
Pb      15.29661      4.00828     12.95876         0.586565      0.258487     -0.052638
Pb      15.32301      0.24093     13.01200         0.117179     -0.334636      0.191078
Pb       3.79880      7.78417      4.38964        -0.465233     -0.020898     -0.318620
Pb       3.78154      7.66475     17.34098         0.045957      0.032675      0.748974
Pb      15.30831      8.03641      4.43338         0.573820      0.032416     -0.167576
Pb      15.26733      7.98515     17.39768         0.523690      0.035178      0.663836
Pb       3.86589      7.65921      8.73341         0.071638      0.088581     -0.016868
Pb       0.04990      7.54489      8.78840        -0.291141      0.936035      0.035880
Pb       3.65166      7.60339     13.08168         0.869567     -0.158837      0.226933
Pb      15.34815      7.86624     13.05738         0.231899      0.487137     -0.012112
Pb       3.76014     11.52392      4.22800        -0.461031      0.352444      0.394191
Pb       3.72555     11.57262     17.35101         0.182087      0.018988      0.442891
Pb      15.27859     11.73444      4.35306         0.153449      0.033200      0.073494
Pb      15.23483     11.78042      0.00756         0.424854     -0.101170     -0.374419
Pb       3.97670     11.49477      8.68722        -0.618099      0.573359      0.300598
Pb       0.10137     11.44312      8.74113        -0.119643      0.634619     -0.194283
Pb       3.72150     11.49627     13.03632         0.049933      0.517804      0.052040
Pb      15.33939     11.70310     13.04925         0.084842      0.282811      0.091862
Pb       7.68724      4.00314      4.25473         0.018343     -0.295761      0.135193
Pb       7.69108      3.89243     17.36460         0.333202      0.028582      0.194171
Pb       7.72176     15.38963      4.27466         0.462108     -0.111754     -0.157747
Pb       7.72975      0.19643     17.37516        -0.094171     -0.506642      0.207146
Pb       7.50613      3.88619      8.59322         0.360123     -0.087331     -0.052701
Pb       7.58277     15.36907      8.59036         0.493109      0.261929      0.224266
Pb       7.56004      3.93142     13.00632         0.191645      0.202547      0.263966
Pb       7.63895      0.16141     13.05144        -0.210753      0.191160     -0.089199
Pb       7.72206      7.76039      4.30818        -0.077434     -0.013914      0.096116
Pb       7.53553      7.81589     17.29463         0.462556     -0.593750      0.558639
Pb       7.65608      7.72485      8.77850        -0.098981     -0.000442     -0.667564
Pb       7.68280      7.93139     13.09771         0.134730     -0.993817     -0.218854
Pb       7.57531     11.55401      4.26515         0.779360      0.338632      0.456275
Pb       7.63846     11.54827     17.25447         0.133675      0.575075      0.830698
Pb       7.68141     11.51436      8.74700        -0.005021      0.432488      0.050259
Pb       7.66293     11.82035     13.14896         0.223005     -0.715463     -0.716894
Pb      11.42134      4.03540      4.45066         0.668709     -0.028217     -0.601738
Pb      11.64028      4.13472      0.04822        -0.609381     -0.233737     -0.237402
Pb      11.60224     15.49634      4.33233        -0.456926     -0.279624     -0.366885
Pb      11.53655      0.27960      0.00478        -0.169492      0.052615     -0.077940
Pb      11.47907      3.91951      8.64396         0.437496     -0.166535     -0.011009
Pb      11.39480      0.17678      8.63961         0.429908     -0.120978      0.296375
Pb      11.54754      4.17026     13.08805        -0.741749     -0.304299     -0.680719
Pb      11.47878      0.25312     12.90243         0.279454      0.208289      0.301572
Pb      11.44163      7.94350      4.39649         0.257509     -0.725162      0.268721
Pb      11.46996      7.90456     17.32793        -0.017867     -0.572312      0.144058
Pb      11.56684      7.84381      8.73366        -0.183754     -0.329982     -0.020231
Pb      11.58856      7.95856     12.98691        -1.022010     -0.776021      0.239145
Pb      11.50465     11.41793      4.35185        -0.020110      1.378106      0.085362
Pb      11.43038     11.84922     17.17741         0.089162     -1.296922      1.925168
Pb      11.55841     11.64327      8.66575         0.072082      0.528934      0.542560
Pb      11.46042     11.83534     12.93493        -0.092284     -0.050163      0.408927
Ti       1.84069      1.79644      2.44939         0.899258      1.485337     -0.629736
Ti       1.87000      1.99181     15.39250         0.401211     -1.155026      1.147889
Ti       1.84891     13.41421      2.26532         0.610891     -0.630625      0.287867
Ti       1.96537     13.48991     15.40864        -0.859244      0.240356     -0.061555
Ti      13.53328      2.18468      2.39331        -1.411962     -0.479143      1.199484
Ti      13.48193      2.16951     15.36167        -1.044152     -0.184059      1.799461
Ti      13.42909     13.58652      2.27136        -0.463172     -0.109001      0.108117
Ti      13.45080     13.71906     15.43660         0.527972     -0.932775     -0.796130
Ti       1.91334      1.84201      6.60701         0.452885      0.021727     -0.099677
Ti       1.97686     13.42135      6.69814        -0.429449     -1.486031     -0.353950
Ti      13.56802      2.02546      6.58465        -1.418934      0.833953      0.069690
Ti      13.38428     13.57109      6.62607         1.064318      0.285665      0.567037
Ti       1.89577      1.90202     10.95749        -0.770834     -0.102521      0.113733
Ti       1.86195     13.50475     11.07405         0.554961     -0.451945     -1.197961
Ti      13.47023      2.12447     10.96061        -1.026666     -0.118237     -0.573221
Ti      13.40410     13.66295     11.02967         0.204074     -0.190019     -1.552507
Ti       1.84333      5.76600      2.33148         0.039091      0.538654     -0.648473
Ti       1.84535      5.77356     15.51907         1.173286      0.276799      0.037398
Ti      13.41288      6.02703      2.32785         0.274938     -0.760491      1.008287
Ti      13.51833      5.97093     15.46668        -1.608929      0.047613      1.063655
Ti       1.86316      5.82158      6.76452         1.050519     -0.140761     -0.571829
Ti      13.50743      6.00154      6.76634        -2.215877     -1.082299     -0.304688
Ti       1.88792      5.79081     11.00986         0.995424     -0.774853      1.223745
Ti      13.38846      5.97056     11.05814        -0.253450     -0.244894     -0.475656
Ti       1.84674      9.57803      2.25212        -0.106062      0.222702      2.038256
Ti       1.93973      9.59781     15.40576        -0.559820      0.245361      0.386227
Ti      13.40518      9.69835      2.28852         0.787099      1.732252      0.195013
Ti      13.34135      9.83845     15.39743         1.017633     -0.538052      0.185921
Ti       1.95974      9.63030      6.81155        -0.209141      0.693033     -2.162145
Ti      13.48273      9.78285      6.81812        -0.026152      0.315014     -0.270773
Ti       1.91675      9.63565     11.04969        -0.718089      0.513481     -1.212717
Ti      13.35600      9.81763     11.08423         1.554460      0.797670     -1.168930
Ti       5.79627      1.93248      2.36646         0.774171      0.548379      1.348072
Ti       5.72803      1.94966     15.34307        -0.407989     -0.754670      0.114652
Ti       5.79360     13.41253      2.29011         0.138735      1.093932      1.791298
Ti       5.79003     13.43509     15.39164        -0.671629      1.481809      1.184352
Ti       5.88991      1.93478      6.55499        -0.409982      0.086415     -0.766186
Ti       5.84352     13.46079      6.63638        -0.400881     -0.088182     -0.145260
Ti       5.63257      1.90338     11.05608         0.949885      0.663662     -0.955322
Ti       5.72575     13.47275     11.04489        -0.329052      0.269046      1.411992
Ti       5.72228      5.84515      2.32904         0.123974     -0.299493      2.398079
Ti       5.66885      5.71924     15.40890         1.108657      0.154265     -1.337335
Ti       5.67231      5.84437      6.67795         0.932932     -0.534520     -0.331334
Ti       5.71720      5.77957     11.05967        -0.697289      0.420723     -0.157890
Ti       5.68080      9.60812      2.36397         0.523118      0.313788      1.342552
Ti       5.71370      9.55841     15.31860        -1.344589      0.518321     -0.452820
Ti       5.77982      9.64167      6.68979         0.448030      0.342927     -0.837283
Ti       5.67156      9.64952     11.12346         0.956515     -0.135851     -0.050969
Ti       9.68015      2.04930      2.31185        -0.477937     -0.346196      0.643017
Ti       9.61248      2.12160     15.30194         0.497253      0.149987      0.350983
Ti       9.67943     13.48177      2.20573        -0.756418      0.635375      0.825161
Ti       9.61317     13.66991     15.38252        -0.760780     -0.449099      1.250117
Ti       9.68041      2.00293      6.59613        -0.552661     -0.142366      0.125911
Ti       9.62442     13.52609      6.72426         0.083486     -0.031294     -1.287637
Ti       9.53723      2.10129     11.01844         0.518174     -0.237804      1.311352
Ti       9.49836     13.66343     10.98469         0.492653     -1.159851     -0.190958
Ti       9.66977      5.88437      2.31188        -0.459620     -0.128090      1.173288
Ti       9.57690      5.89113     15.39806         0.251364      0.209890     -0.342141
Ti       9.62609      5.90699      6.72789        -0.571018     -0.611781     -0.283245
Ti       9.42997      5.82428     10.88423         1.127227      0.859451      2.838279
Ti       9.56966      9.68822      2.25001        -0.433557      0.571304      0.558240
Ti       9.55848      9.70548     15.34200         0.222211      0.021102      0.178081
Ti       9.63177      9.73361      6.80154        -0.120795     -0.094663     -0.176559
Ti       9.55607      9.69223     11.02709        -0.709851      0.175384      0.993538
O       1.91060      1.99089      0.63585        -0.360703     -0.557668      1.029572
O       1.82582      1.97541     13.65125         0.148860      0.225535     -0.233761
O       1.92622     13.39521      0.49398        -0.442762      0.484662      0.221458
O       1.86364     13.49608     13.63774         0.366951      0.049974      0.028234
O      13.72724      2.00593      0.66703        -0.568709      0.197677     -0.845621
O      13.38569      2.22028     13.64952         0.287358      0.096579     -0.693429
O      13.56136     13.56736      0.44636        -0.375657      0.126790      0.421443
O      13.34121     13.69632     13.66818         0.031659      0.004684      0.014922
O       1.86857      1.75934      4.87512         0.251015      0.313304     -0.215734
O       1.99897     13.25689      4.94830         0.127856      0.441229     -0.494931
O      13.47374      2.21328      4.83210        -0.079998     -0.406286      0.289140
O      13.40325     13.52997      4.88631        -0.235778     -0.052776     -0.138462
O       1.83882      1.62642      9.20697         0.288189      0.930965     -0.056527
O       1.84874     13.55102      9.25019         0.009803     -0.191049      1.533156
O      13.47457      1.91893      9.21386         0.207797      0.653301     -0.161870
O      13.48420     13.54788      9.21966        -0.001479      0.508526      1.624359
O       1.80948      5.81129      0.55133         0.632325     -0.289545      0.449890
O       1.89814      5.79968     13.76888        -0.153332     -0.194839     -0.619583
O      13.32024      6.11244      0.59158         0.118665     -0.362453     -0.486705
O      13.41862      5.94207     13.72300         0.204679      0.090864     -1.013529
O       1.93709      5.89261      5.03923        -0.107001     -0.181634     -0.538694
O      13.42210      5.86593      5.05403        -0.081611      0.428249     -0.696942
O       1.93939      5.84226      9.26894        -0.219188     -0.151828     -0.550368
O      13.57609      6.02347      9.33880        -0.060131     -0.038969     -0.544161
O       1.81772      9.52280      0.55636         0.140642      0.323271     -1.783390
O       1.97530      9.56527     13.64835        -0.029954      0.092636     -0.534658
O      13.69711      9.82596      0.53807        -1.171420     -0.229297      0.047413
O      13.39256      9.68915     13.64985         0.011525      0.164547     -0.335672
O       1.94908      9.60972      4.91327        -0.023776      0.081412      1.839559
O      13.39199      9.82450      5.05325         0.309038     -0.315132     -0.134319
O       1.83442      9.69893      9.23976         0.471964     -0.576162      0.626941
O      13.40573      9.88035      9.28841        -0.100590     -0.320284      0.709558
O       5.86256      1.98121      0.62073        -0.401364      0.000757     -0.896936
O       5.57850      1.91133     13.56572         0.354070      0.272630      0.446038
O       5.83921     13.61391      0.61220        -0.252004     -0.268544     -1.888321
O       5.78723     13.49294     13.66990        -0.097961      0.055329     -1.223323
O       5.95103      1.84377      4.78363        -0.438059      0.334433      0.428609
O       5.94306     13.46500      4.88443        -0.699090      0.053192     -0.158026
O       5.72744      1.93985      9.26256        -0.186039      0.041685      0.361376
O       5.83688     13.41941      9.33863        -0.088417      0.178707     -1.020340
O       5.74986      5.75718      0.65700        -0.031266      0.027657     -2.490141
O       5.64005      5.78395     13.65191         0.155633     -0.200181     -0.055728
O       5.64246      5.86887      4.91709         0.075839      0.120174      0.382187
O       5.67701      5.75607      9.25485         0.179275     -0.022503      0.472570
O       5.83100      9.61316      0.67419         0.013346     -0.043929     -1.726759
O       5.63823      9.54415     13.51738         0.124882      0.301023      1.516017
O       5.92565      9.63133      4.87259        -0.749797     -0.019280      1.595256
O       5.71399      9.89695      9.35364         0.323672     -1.021725      0.228845
O       9.46063      2.13197      0.55538         0.574685     -0.439417     -0.345098
O       9.64939      2.10985     13.50894        -0.050439     -0.190727      1.185927
O       9.45836     13.59007      0.42828         0.739219     -0.209004      0.936116
O       9.67902     13.55899     13.64770        -0.319133      0.455934     -0.657094
O       9.77334      1.97861      4.82456        -0.260415      0.438845      0.923063
O       9.73737     13.52235      4.96923        -0.215118     -0.031799      0.130639
O       9.62305      2.01191      9.30406        -0.236216      0.136851     -0.465256
O       9.44615     13.56254      9.24880         0.215552      0.276318     -0.188517
O       9.74148      5.78513      0.58764        -0.223092      0.392943     -0.319118
O       9.64424      6.08794     13.65615         0.159514     -0.745612      0.170450
O       9.63940      5.96675      4.91567         0.260313     -0.469738      0.884519
O       9.46416      5.92971      9.17165        -0.199388     -0.428174     -0.706015
O       9.46363      9.69073      0.51880        -0.017125     -0.028319     -0.628552
O       9.46566      9.60264     13.58932         0.437894      0.231707      0.102706
O       9.69757      9.75498      5.04292        -0.357429     -0.276222     -0.182829
O       9.73876      9.65928      9.28841        -0.622817      0.069672     -0.292157
O       3.86822      1.93512      2.76213        -0.622551     -0.112602     -0.125716
O       3.76922      1.92845     15.91007         0.413695      0.129272     -0.323318
O       3.82157     13.47029      2.65129        -0.343027      0.344870      0.086425
O       3.83743     13.65742     15.98387         0.018564     -0.705331     -0.662142
O      15.35795      2.24738      2.87380         0.945883     -0.761730     -0.160793
O      15.31354      2.23085     15.87214         0.638421     -0.427911     -0.483931
O      15.24200     13.58089      2.74857         1.660520     -0.274584     -0.160927
O       0.01149     13.26041     15.73923        -0.630892      0.503705      0.103256
O       3.95490      1.83060      6.94263        -1.502765      0.218128      0.171011
O       3.91874     13.40719      7.17382         0.185579      0.605407     -0.476633
O       0.04385      1.91180      6.99918         0.311950     -0.129388      0.199802
O       0.07166     13.16299      6.88071        -0.796171      0.610192      0.710517
O       3.73549      1.93174     11.41520         0.078919      0.490826      0.066251
O       3.76173     13.50050     11.52640         0.574970     -0.458782     -0.341703
O      15.32151      2.10109     11.40829         0.576630      0.147169      0.301357
O      15.32713     13.61879     11.47986        -0.193829      0.667980      0.087578
O       3.72981      5.73023      2.81337         0.722750      0.687150     -0.516629
O       3.90155      5.78886     15.85042        -1.762892     -0.425015      0.564517
O      15.33235      5.95111      2.73302         0.120321      0.101829      0.242147
O       0.00091      5.85163     15.91840        -0.319055     -0.365480     -0.539395
O       3.79881      5.72566      7.15532         0.154199      0.273581      0.104483
O      15.31453      6.09665      7.04826         1.858844     -0.683214      0.770209
O       3.84761      5.73177     11.60194        -1.254004     -0.308282     -0.669070
O       0.06883      5.80840     11.56010        -0.704285      0.088946     -0.362936
O       3.77817      9.66638      2.74372         0.239637     -0.298075     -0.273085
O       3.80583      9.63715     16.00742         1.215289     -0.269592     -0.872032
O      15.31030      9.83551      2.80681        -0.019589      0.171393     -0.068514
O       0.04911      9.45990     15.79748        -0.650841      0.772146     -0.546152
O       3.88044      9.61146      7.14630         0.836613     -0.042699     -0.219572
O       0.01565      9.55992      7.13335         0.058488      0.246724      0.032204
O       3.76825      9.73806     11.41048         0.875248      0.230638      0.227453
O       0.05482      9.60213     11.42599        -1.364966     -0.162497      0.502659
O       7.77651      2.15072      2.71051        -1.141986     -1.067768      0.131339
O       7.70927      1.99735     15.72721        -0.465001      0.523262     -0.310753
O       7.73067     13.56702      2.68300         0.274948     -0.336757     -0.004984
O       7.64202     13.52945     15.85261         0.587413     -0.282786     -0.680716
O       7.70127      1.94422      7.07781         0.632405      0.312328     -0.093774
O       7.72709     13.43204      7.01805        -0.721254      0.260719      0.527575
O       7.55218      1.92447     11.47515         1.120616      0.152850     -0.093101
O       7.66466     13.78616     11.44727        -0.860023     -0.445327      0.392202
O       7.69326      5.84923      2.74050         0.263829      0.631562     -0.238848
O       7.69700      5.77578     15.74726        -0.576176      0.272797      0.386322
O       7.60976      5.76407      7.09035         0.452779      0.234287      0.021556
O       7.60313      5.87219     11.58048         0.186309      0.007183     -0.881156
O       7.68208      9.63636      2.83684         0.333342     -0.031356     -0.678886
O       7.58870      9.65580     15.80516        -0.064047      0.103892     -0.653291
O       7.74091      9.62637      7.26251        -0.709085      0.071130     -0.342827
O       7.64644      9.63657     11.52616        -0.175997     -0.067033     -0.646390
O      11.60493      2.05959      2.62632        -0.074255      0.301007     -0.002879
O      11.47741      2.00587     15.85685         0.886104      0.394530     -0.301248
O      11.54575     13.57407      2.62841        -0.527366      0.155459     -0.376553
O      11.46917     13.63486     15.92220         0.524010      0.896186     -0.885060
O      11.54107      1.97483      7.07610         0.375674     -0.031578     -0.161270
O      11.51783     13.67859      7.14150         0.694004     -0.268214      0.050065
O      11.57329      2.18571     11.40809        -0.583161     -0.002794      0.048416
O      11.48276     13.55926     11.29405         0.099803      0.065132      0.418221
O      11.56833      6.02325      2.83654        -0.497893     -0.649048     -0.236436
O      11.56547      5.87028     15.87087         0.075799      0.411055     -0.033895
O      11.51876      5.85474      7.31567         0.028320      0.359736     -0.716178
O      11.39567      5.93107     11.34546         1.322776     -0.169691      0.030830
O      11.51969      9.64457      2.73510         0.190578      0.327798     -0.404108
O      11.42232      9.82870     15.78088         0.576707     -0.873121     -0.231604
O      11.51949      9.62455      7.13590         0.237546      0.382090      0.323425
O      11.47506      9.88416     11.48136         0.068157     -0.528175     -0.118592
O       1.90790      3.82771      2.82931         0.023719     -0.033034     -0.274415
O       1.85970      3.89547     15.98160         0.386880     -0.600018     -0.574141
O       1.70992     15.29566      2.89028         1.025512      0.261110     -1.178758
O       1.78759      0.04947     15.76950         0.014024      0.374643      0.032760
O      13.48484      4.06781      2.77167        -0.384249      0.483207     -0.470656
O      13.48552      4.01775     15.98920        -0.184563      0.368917     -0.790123
O      13.50384     15.46581      2.81810        -0.081644      0.593611     -0.459361
O      13.49381     15.54568     15.79228        -0.011407      1.046239      0.167921
O       1.88770      3.78004      7.03040         0.099969      0.259168      0.152391
O       1.83880     15.26537      7.06551         0.478526      1.269218     -0.251128
O      13.46154      3.96374      7.10197         0.095103      0.343764      0.423767
O      13.65848     15.53656      6.88615        -0.542034     -0.670937      0.140204
O       1.82522      3.80338     11.41032         0.180758      0.462519     -0.261661
O       1.91072      0.05415     11.55099        -0.522791     -0.428483     -0.183325
O      13.53154      4.08789     11.30118        -0.125849      0.120656      0.568845
O      13.42513      0.25401     11.42275        -0.048305     -1.182453      0.187546
O       1.79263      7.74272      2.66078         0.543956     -1.157911      0.531375
O       2.11014      7.69163     15.77397        -0.775608     -0.290868      0.001306
O      13.55370      7.89211      2.86642        -0.548135     -0.202031     -0.385060
O      13.39734      7.87885     15.90299        -0.320317      0.301441     -0.565903
O       1.99418      7.75076      7.09116        -0.197557     -1.114194      0.661770
O      13.48811      7.86477      7.17129        -0.372989      0.324314      0.262819
O       1.98977      7.74281     11.39245        -0.250086     -1.116545      0.077133
O      13.49746      7.92058     11.38539        -0.543355     -0.140935      0.479705
O       1.91873     11.56678      2.60528        -0.244033     -0.372179      0.241009
O       2.01694     11.55149     15.67425         0.183467     -0.314076      0.372706
O      13.36197     11.65330      2.83513         0.175320     -0.355312     -0.768218
O      13.27771     11.68454     15.72936         0.807401      0.187908      0.069605
O       2.06431     11.49921      7.22511        -0.384462     -0.300175     -0.193534
O      13.35811     11.73260      7.14782        -0.062387     -1.131484     -0.202747
O       1.84152     11.54728     11.50149         0.260988      0.460894      0.024709
O      13.45027     11.73832     11.56899        -0.087526     -0.222357     -0.346047
O       5.82998      3.94021      2.81353        -0.844393     -0.333837     -0.238598
O       5.64884      3.84737     15.70365         0.497367     -0.911001      0.534996
O       5.69557     15.38580      2.77171         0.742852      0.297041     -0.385876
O       5.78719     15.38625     15.69183        -0.090195      1.320111      0.537618
O       5.75275      3.83479      6.96186        -0.263079      0.283601      0.396287
O       5.83515     15.38140      6.96755        -0.057706     -0.233131      0.321301
O       5.77794      3.86897     11.45614        -0.443156     -0.130506      0.046842
O       5.57564      0.08698     11.46623         0.397111     -0.972208      0.080339
O       5.67781      7.74210      2.75935         0.171503     -0.391937      0.022009
O       5.70459      7.67342     15.74582         0.309229      1.264680      0.287977
O       5.77949      7.75475      7.09421        -0.181554     -0.230702      0.292402
O       5.55568      7.71967     11.32445         0.517828      0.297497     -0.043857
O       5.73989     11.57676      2.77491         0.253394     -0.525515     -0.429938
O       5.59523     11.58670     15.79913         0.635962     -1.072641     -0.260506
O       5.81771     11.56634      7.11287         0.073609     -0.772505     -0.217762
O       5.89083     11.60531     11.56451        -0.605379      0.519668     -0.167997
O       9.57657      3.94182      2.78207         1.054693      1.323611     -0.001296
O       9.68406      4.03043     15.85236        -0.178935     -1.527443     -0.511356
O       9.71191      0.16576      2.82093        -0.359387     -0.906074     -0.932519
O       9.60391     15.50135     15.82035        -0.121566      0.657601     -0.395399
O       9.67691      3.85764      7.16687        -0.424058      0.528495     -0.696339
O       9.59114     15.40808      7.08566        -0.301259      1.388543      0.165654
O       9.54382      3.97044     11.56263        -0.385946      0.401354     -0.928454
O       9.68333      0.16257     11.40964        -0.284597      0.541699      0.067276
O       9.73890      7.85079      2.76950        -1.098879     -0.782266     -0.308853
O       9.59391      7.79884     15.79876        -0.111503      0.623089      0.347880
O       9.58890      7.71230      7.07530        -0.074640      0.844285      0.403557
O       9.55417      7.78267     11.38937         0.027355      0.233098     -0.254038
O       9.65958     11.59216      2.76660        -0.233958      0.180546     -0.771908
O       9.59334     11.63777     15.74075        -0.623655      0.011022     -0.257531
O       9.64272     11.64608      7.24055         0.180382     -1.029511     -0.385395
O       9.36053     11.69792     11.48889         0.715729     -0.076800     -0.264348
