  # total energy = -7881.71283576 
CRSYTAL
PRIMVEC
    15.3600000000000000    0.2300000000000000    0.0000000000000000
     0.0000000000000000   15.3600000000000000    0.0000000000000000
     0.0000000000000000    0.0000000000000000    17.440000000000000
PRESSURE
0.087425 0.06427 -2.70618 -0.17766 -0.08668 -1.6101
PRIMCOORD
320 1
Pb       3.83681      3.76431      4.44808        -0.240943      0.316187     -0.591361
Pb       3.84848      3.99113     17.32139        -0.121742      0.157519      0.366035
Pb       3.70876     15.35548      4.29730         0.382825     -0.109864     -0.085135
Pb       3.74562      0.10453     17.35440         0.259647     -0.462256     -0.639319
Pb      15.23071      3.92682      4.27875         0.807198      0.833604      0.080813
Pb      15.24999      4.09808     17.28107         0.590915      0.297658      0.586454
Pb      15.33736     15.54696      4.32810         0.096431     -0.193848     -0.683063
Pb      15.31290     15.58473      0.00160        -0.118772     -0.483947     -0.286737
Pb       3.88095      3.97460      8.77518        -0.765049     -0.046341     -0.925432
Pb       3.81900     15.32335      8.77241        -0.405765      0.530886     -0.538724
Pb       0.03979      3.90738      8.76471        -0.096346      0.182601     -0.631827
Pb       0.00305      0.08902      8.67705        -0.123944      0.277597     -0.049764
Pb       3.89310      3.98602     13.02585        -0.014022     -0.240192     -0.041629
Pb       3.85177      0.13721     13.06717         0.088796     -0.109736     -0.060406
Pb       0.07074      3.85717     13.09376        -0.572028     -0.025433     -0.499118
Pb       0.03050      0.01391     13.07370        -0.198951     -0.292791     -0.196524
Pb       3.79355      7.70029      4.29941        -0.218315     -0.344715     -0.385897
Pb       3.81726      7.88598     17.35480         0.008682     -0.422215      0.821870
Pb      15.31390      7.82116      4.21066         0.135239      0.002328      0.479198
Pb       0.01977      7.74571     17.35955         0.146256     -0.468089      0.490630
Pb       3.73468      7.78231      8.64430        -0.047711     -0.255790      0.249589
Pb      15.31298      8.00738      8.60599        -0.047406     -0.789483     -0.008162
Pb       3.94414      7.91427     13.05699        -0.744195     -0.376501     -0.454063
Pb      15.30778      7.90451     12.99345         0.151727      0.260815     -0.269131
Pb       3.94042     11.58759      4.43960        -0.558523      0.093960     -0.605702
Pb       3.82430     11.60763     17.37580         0.169617     -0.080359      0.201357
Pb      15.32147     11.73896      4.28946         0.057065     -0.249354      0.119726
Pb       0.08350     11.41418     17.41878        -0.776931      0.197289      0.108771
Pb       3.60858     11.57048      8.68351         0.678856     -0.445688     -0.240959
Pb      15.18188     11.64437      8.66965         0.037249      0.132208     -0.240807
Pb       3.83368     11.60788     13.14182         0.127176     -0.149722     -1.002380
Pb       0.03700     11.47461     13.06335        -0.392159     -0.244684     -0.316613
Pb       7.56045      3.80651      4.44197         0.300231      0.049614     -0.150722
Pb       7.62904      3.91175      0.00219         0.416767      0.468839     -0.170038
Pb       7.49707      0.20079      4.40427         0.234522     -0.156897     -0.018138
Pb       7.57826      0.12657     17.42948         0.258847     -0.634065     -0.509961
Pb       7.66870      4.02255      8.80622         0.176645     -0.484436     -1.567837
Pb       7.56413      0.15188      8.81073         0.819409     -0.282383     -0.993407
Pb       7.72238      3.87730     13.05588         0.004294      0.173163     -0.050412
Pb       7.63777     15.46933     13.08955         0.192493     -0.472765     -0.305906
Pb       7.69363      7.88369      4.29281        -0.364989     -0.531181     -0.215092
Pb       7.76801      7.88230      0.00357        -0.243795     -0.317395     -0.243000
Pb       7.68542      7.72404      8.67010         0.094665      0.727465     -0.608004
Pb       7.66211      7.64941     13.01676        -0.037650      0.091877     -0.051658
Pb       7.75710     11.62347      4.27628        -0.295946      0.032827      0.341146
Pb       7.78044     11.68429      0.01331         0.001570     -0.045736     -0.339183
Pb       7.50396     11.64492      8.72761         0.493391     -0.387342     -0.916500
Pb       7.66306     11.38807     12.93697        -0.383747      1.116763      0.297241
Pb      11.51241      3.94540      4.26100        -0.262962      0.516497     -0.133477
Pb      11.42926      3.89362     17.29255        -0.227705      0.382084      0.360429
Pb      11.38128      0.22828      4.27728         0.500053     -0.354775      0.262004
Pb      11.52690     15.43953     17.43045         0.200069     -0.479314     -0.532940
Pb      11.49602      4.07255      8.69918         0.348666     -0.317272     -0.863742
Pb      11.60168     15.43266      8.73043        -0.121224      0.125014     -0.403961
Pb      11.58966      3.91109     13.02589        -0.140642     -0.067243     -0.400004
Pb      11.54196     15.36924     13.15466        -0.247671      0.365987     -0.429464
Pb      11.49073      7.79893      4.25794         0.526731     -0.160946     -0.107704
Pb      11.61887      7.86832     17.39349        -0.515548      0.016797      0.248635
Pb      11.41665      7.81506      8.68745         0.264480      0.156989     -0.733543
Pb      11.50330      7.69796     13.06313         0.145628      0.444149      0.006079
Pb      11.45216     11.83648      4.43875         0.393220     -0.429719     -0.663993
Pb      11.62177     11.53460      0.10265        -0.303899      0.865208     -0.943826
Pb      11.41675     11.61909      8.67703        -0.244419      0.087008     -0.499455
Pb      11.54472     11.54409     13.18210         0.334216     -0.094683     -0.264307
Ti       1.93966      1.97968      2.16583        -0.022027      0.167339      0.680782
Ti       1.91820      1.93313     15.35899         0.142720     -0.073862      1.007308
Ti       1.88393     13.43673      2.30818         0.033001     -0.797214      1.301316
Ti       1.84666     13.39373     15.31580         0.310184      0.145000      0.664141
Ti      13.47753      2.06249      2.21845        -0.402351     -0.481764     -0.867121
Ti      13.47112      2.11746     15.36022         0.279615     -0.968569     -0.912604
Ti      13.40009     13.63794      2.32080         0.052658     -0.446218     -0.939563
Ti      13.44339     13.58656     15.40357        -0.718549     -0.552207      0.964131
Ti       1.88662      1.94686      6.69465        -0.061387      1.353712      0.405052
Ti       1.87603     13.47271      6.65079        -0.058055      0.412467     -1.426852
Ti      13.40947      2.13543      6.54837         0.188499      1.003330      2.952220
Ti      13.53163     13.72578      6.64891        -1.362278     -1.376934     -0.989798
Ti       1.90076      1.97055     11.04866         0.082017      0.253849     -1.370202
Ti       1.90974     13.51653     10.92348        -0.185981     -0.831370      1.515343
Ti      13.52965      2.06622     11.04102        -1.097188      0.677085     -0.503454
Ti      13.41525     13.64159     11.17940         0.824326     -0.823739     -0.003255
Ti       1.88920      5.70774      2.29662         0.361521      0.567481      1.513861
Ti       1.85640      5.74443     15.33520        -0.039368      0.771140     -0.152853
Ti      13.45967      5.91145      2.20906        -0.583570      0.763566      0.067281
Ti      13.34435      5.97606     15.33945         1.463148      0.032509     -1.393004
Ti       1.93572      5.79238      6.62775        -0.524576     -0.272139     -0.819042
Ti      13.44354      5.97796      6.66015         0.136708     -0.452673     -0.864499
Ti       1.89025      5.80132     11.10541        -0.599301      1.494099     -2.583907
Ti      13.37365      5.96361     11.06197         1.189839      0.009047     -1.251869
Ti       1.93219      9.61602      2.37447         0.148417     -0.318128     -0.735226
Ti       1.94357      9.55507     15.34619        -1.040756      0.317367     -0.797948
Ti      13.44063      9.79645      2.27210        -0.321749     -0.530563      0.533735
Ti      13.39663      9.71195     15.41275         0.539760      1.865083     -1.116484
Ti       1.87141      9.64733      6.59504        -0.081330     -0.343428     -0.761093
Ti      13.36779      9.82475      6.49898         0.375795     -0.300206     -0.344778
Ti       1.89591      9.68135     11.03795        -0.055269     -1.420294      0.681116
Ti      13.36079      9.80865     10.96937         1.406003     -0.300469      0.629548
Ti       5.72801      1.93052      2.22555         0.111226      0.694730      1.321217
Ti       5.78545      2.02528     15.42754        -0.454543     -0.679224     -0.906693
Ti       5.77985     13.49601      2.31388        -0.821533     -0.427870      0.131932
Ti       5.75083     13.44904     15.27339        -0.421020      0.494620     -0.047269
Ti       5.71090      1.90027      6.82331         0.611982      1.481239     -0.953906
Ti       5.69709     13.51732      6.67125         1.154249     -0.526899     -0.837462
Ti       5.79170      1.94902     11.01562        -0.752780     -0.104138      1.028242
Ti       5.77939     13.47426     10.94846         0.123596     -0.484759      1.881664
Ti       5.84775      5.70561      2.39154        -1.184664      0.599470     -0.844528
Ti       5.73845      5.92890     15.42119         0.320650     -0.333889     -0.319333
Ti       5.74374      5.84502      6.63045         0.270031     -1.286314     -0.420320
Ti       5.65973      5.81399     10.95181         0.063557      0.815679      1.659449
Ti       5.73642      9.64639      2.32282        -1.226714      0.053456     -0.485714
Ti       5.78646      9.70194     15.36389         0.140283      0.348431      0.623386
Ti       5.70033      9.61838      6.62567         0.383358      1.046785      0.095242
Ti       5.77551      9.65741     10.96529        -1.192279      0.190527     -1.524854
Ti       9.59811      2.03003      2.31541        -0.496308      0.369676      0.279108
Ti       9.62891      1.94622     15.35514        -0.445376     -0.165784     -0.315119
Ti       9.59790     13.61035      2.33670        -0.141678     -0.702690      0.168140
Ti       9.54646     13.48982     15.26650         0.966967     -0.009465      1.464433
Ti       9.66286      1.93900      6.62438        -1.215806      1.082237     -0.346340
Ti       9.62792     13.55569      6.57853        -0.752467     -0.237915      0.351586
Ti       9.62166      1.96582     10.98328         0.635694     -0.238744      0.611290
Ti       9.62665     13.46454     11.08075        -0.554376      0.183654      0.316811
Ti       9.56848      5.88599      2.34004         0.137352     -0.916598      0.330026
Ti       9.60028      5.90067     15.33535        -0.864529     -0.155540     -0.690259
Ti       9.61766      5.88177      6.57843        -0.011769     -0.564578     -0.657692
Ti       9.57737      5.83993     11.04872         0.006656      0.077691      1.543282
Ti       9.59159      9.73561      2.27688         0.677947      0.017698      0.189649
Ti       9.54433      9.73523     15.30848         1.076525      0.390195      0.751995
Ti       9.60201      9.72170      6.50085        -0.738084     -0.045575      0.132559
Ti       9.58394      9.68866     11.04993         0.521594     -0.318211     -1.226300
O       2.04861      2.02067      0.37584        -0.035625     -0.286447      0.771910
O       1.88979      1.97877     13.62312        -0.180529     -0.020728     -0.765323
O       1.71178     13.34016      0.58113         0.692120      0.227444     -0.480315
O       1.91847     13.29678     13.54287        -0.090472      0.419655      0.753496
O      13.41440      1.84381      0.40531        -0.101988      1.074371      0.958161
O      13.51695      2.15717     13.52635        -0.151975     -0.249558      1.716890
O      13.37243     13.64437      0.50970        -0.000326      0.244039      0.842491
O      13.42421     13.56392     13.62912        -0.034542      0.132906     -0.359302
O       1.84334      2.10759      4.91735         0.184177     -0.717244      0.515322
O       1.85553     13.57863      4.79854        -0.167572      0.042563      1.644130
O      13.49164      2.11117      4.83220        -0.110251      0.072612     -1.378332
O      13.47414     13.57985      4.87807         0.083334      0.555996      0.464376
O       1.83721      2.00074      9.22425        -0.028725     -0.467110      1.224749
O       1.85226     13.47402      9.16620        -0.036953      0.027245      0.122985
O      13.52688      1.97463      9.22378        -0.118578      0.098531      1.549618
O      13.39984     13.73292      9.43637        -0.031509     -0.102197     -1.334747
O       1.70441      5.74071      0.57983         0.356260     -0.116361     -0.987857
O       1.87056      5.68039     13.54084         0.197901      0.128960      0.390258
O      13.45255      6.03277      0.41319        -0.116390     -0.347406      0.261601
O      13.38236      6.02371     13.45003        -0.041518     -0.490777      1.732743
O       1.85941      5.80001      4.80760         0.305368     -0.333704      1.452618
O      13.40348      5.90480      4.85154        -0.177252     -0.203415      0.883215
O       2.02254      5.89922      9.22598        -0.349862     -0.504331      1.297520
O      13.42093      6.00039      9.23194        -0.407412     -0.188157      0.838316
O       1.93003      9.50949      0.55763         0.140003      0.363963      0.348383
O       1.89411      9.60977     13.52395         0.327426     -0.018447      1.489237
O      13.31100      9.67063      0.45665         0.243159      0.052458      0.467677
O      13.50212      9.79279     13.60880        -0.721641     -0.063627      0.908973
O       1.92815      9.60955      4.83658         0.120434      0.019449      0.459559
O      13.44666      9.93023      4.72015        -0.502126     -0.605739      0.640024
O       1.86308      9.68157      9.25190        -0.059229      0.136796     -0.506690
O      13.55264      9.74996      9.16912        -0.523741      0.263666      0.407722
O       5.72313      2.03409      0.45296        -0.177675     -0.467561     -0.265470
O       5.82304      1.98741     13.63486        -0.076598      0.029333      0.070569
O       5.73711     13.46989      0.52251         0.175616      0.357288      0.793714
O       5.59400     13.35911     13.46727         0.401892      0.417171      1.419993
O       5.77618      1.91269      5.01632        -0.329929      0.197286      0.094235
O       5.71902     13.61914      4.85766        -0.180586     -0.272491      1.398224
O       5.85357      1.82372      9.25615        -0.191150      0.351488      0.322183
O       5.96051     13.47829      9.21078        -0.416084      0.258816     -1.122747
O       5.98787      5.69732      0.56300        -0.504928      0.130720      0.731180
O       5.64674      5.97317     13.64883         0.097520     -0.376930      0.145915
O       5.86750      5.62921      4.83800        -0.677688      0.463134      0.979152
O       5.69417      5.77732      9.22012         0.377144      0.354390     -0.023060
O       5.64115      9.64667      0.52144         0.245806      0.054826      0.649644
O       5.64174      9.75565     13.58317         0.510973     -0.318255      0.494155
O       5.58352      9.82595      4.82383         0.676751     -0.818483      1.116401
O       5.71931      9.60346      9.13937         0.447922      0.401629      1.057736
O       9.53970      2.11252      0.54470         0.407147     -0.236668     -0.352909
O       9.62299      1.96939     13.57724        -0.244334      0.020915      0.620112
O       9.50375     13.44047      0.59038         0.081445      0.547924     -0.030717
O       9.58609     13.51185     13.52203         0.203033     -0.137163     -0.594643
O       9.61920      1.89559      4.77723         0.137178      0.408141      1.200526
O       9.64059     13.50841      4.78553         0.048966      0.115537      0.720168
O       9.43849      1.88950      9.22444         0.368419      0.348498      0.512627
O       9.80466     13.33140      9.32344        -0.479985      0.454210     -0.085076
O       9.51695      5.69863      0.57416        -0.062016      0.455815     -0.298463
O       9.67378      5.85300     13.52488        -0.344299      0.195402      1.181333
O       9.84043      5.88656      4.75884        -0.959711     -0.093848      1.540969
O       9.47327      5.88854      9.31084         0.171767     -0.093322     -0.422691
O       9.55960      9.73091      0.47856        -0.151756     -0.095164      0.650640
O       9.63239      9.78847     13.52710        -0.266977     -0.176629      0.170432
O       9.64311      9.80968      4.66953        -0.405807     -0.545534      1.061961
O       9.61752      9.64360      9.22583         0.053952      0.134139      1.422775
O       3.89514      1.97289      2.86503        -1.128781     -0.047790     -1.110278
O       3.82179      1.97914     15.58540        -0.084466     -0.054709      0.814263
O       3.83286     13.48282      2.77057        -0.456444      0.702805     -0.503875
O       3.76007     13.36947     15.66667         0.084617     -0.060479      0.279854
O      15.35654      2.19418      2.60171         0.149071     -0.318419     -0.202991
O       0.02254      1.89878     15.79936        -0.407463     -0.067830     -0.190949
O      15.25838     13.55463      2.78550         1.211928      0.511925     -0.227481
O      15.30520     13.63303     15.88728         1.176703     -0.174117     -0.567386
O       3.84208      1.99973      7.18562        -0.975344     -0.121768     -0.081577
O       3.75635     13.46140      7.01051         0.522149      0.344293      0.370566
O      15.30681      2.19717      7.07155         0.333889     -0.266300     -0.225239
O      15.34909     13.59672      7.09921        -0.015613      0.977122     -0.006815
O       3.76421      1.96839     11.45997         1.169214      0.426807      0.011494
O       3.90517     13.38523     11.08403        -1.858453     -0.052506      0.510329
O       0.03242      1.84842     11.52602        -0.078746     -0.316035     -0.166022
O      15.35690     13.62277     11.49018         0.659711      0.586166     -0.211229
O       3.80778      5.67094      2.65072         0.463518      0.261867     -0.016023
O       3.79968      5.84386     15.82197        -0.167444     -0.105337     -0.124569
O      15.28237      5.99445      2.73836         0.397563     -0.927427     -0.357308
O      15.32182      6.12407     15.66293        -0.017581     -0.690596      0.121351
O       3.87101      5.76447      7.11423        -0.286913     -0.244175     -0.431026
O      15.34548      6.01707      7.01464         0.215402      0.013082      0.204188
O       3.76317      5.78885     11.41229         1.848684     -0.493399      0.204785
O      15.34528      6.15373     11.24230        -0.612415     -0.488203      0.762251
O       3.78305      9.46877      2.77375         0.605276      0.762664     -0.284253
O       3.87671      9.67829     15.74448        -0.719223     -0.170647     -0.136377
O      15.35903      9.91106      2.63041        -0.689650     -0.648430     -0.072606
O      15.32036      9.74702     15.71673         0.219281     -0.036794      0.229664
O       3.82531      9.75986      7.11834        -0.379036     -0.182373     -0.437230
O      15.27387      9.74539      6.86682         1.063765      0.011365      0.638297
O       3.88762      9.66579     11.39699        -0.857282      0.333320      0.047037
O      15.34295      9.69410     11.46362        -0.392872      0.261568     -0.412509
O       7.62327      1.97557      2.73174         0.188842     -0.335067     -0.349595
O       7.67363      1.82918     15.83809         0.348903      0.827112     -0.412048
O       7.68019     13.51720      2.87073        -0.175982     -0.093807     -0.990066
O       7.70096     13.61642     15.73765        -1.094989     -0.541864     -0.169786
O       7.60566      1.94248      6.99853         1.322403     -0.454520      0.595025
O       7.71428     13.56072      6.98918        -0.098917      0.005368      0.144328
O       7.63009      1.88199     11.50382         0.167165      0.469996     -0.452471
O       7.66691     13.47798     11.45580         0.288626      0.632286     -0.188268
O       7.65642      5.78336      2.87123         0.560664      0.017811     -0.151828
O       7.65036      5.93780     15.63175         0.423407     -0.300623      0.217516
O       7.66287      5.92589      7.03276        -0.231181     -0.384407      0.165677
O       7.65867      5.85717     11.57598        -0.353869     -0.013272     -0.824692
O       7.58816      9.84960      2.63404         0.956378     -0.373802      0.184318
O       7.70494      9.75738     15.84932        -0.939048     -0.064280     -0.520997
O       7.74647      9.62382      6.96764        -1.589627     -0.124159     -0.133405
O       7.64173      9.56277     11.35287         0.493959     -0.147905      0.358770
O      11.59329      1.93638      2.71972        -0.517241      0.603009     -0.465627
O      11.53704      2.02900     15.73743        -0.013455      0.308375     -0.037776
O      11.51340     13.65072      2.80805         0.094065     -0.153329     -0.346508
O      11.55602     13.48518     15.80775        -0.540259      0.823283     -0.270098
O      11.48518      2.14221      7.06818         0.365737     -0.373989     -0.173390
O      11.52577     13.52010      7.08461         0.532380      0.059093      0.046941
O      11.57569      2.07479     11.35502        -0.575374     -0.003899     -0.110903
O      11.53645     13.46464     11.47685        -0.717995      0.193152      0.555233
O      11.47155      6.07322      2.64667         0.290864     -0.891216     -0.394140
O      11.51077      5.94916     15.68949        -0.371191     -0.299096      0.304137
O      11.45807      5.88845      7.07491         0.088498     -0.060883      0.392028
O      11.46325      5.74477     11.43568         0.081555      0.289270     -0.341686
O      11.45090      9.49747      2.59392         0.620322      0.633693     -0.462583
O      11.42113      9.86075     15.78171         0.904249     -0.809360     -0.129073
O      11.42006      9.63678      7.00297         1.278078      0.436780     -0.042601
O      11.54276      9.86339     11.42070        -0.979680      0.014225     -0.232385
O       1.85295      3.78741      2.73813         0.205370     -0.003490     -0.440401
O       1.78720      3.90833     15.77535         0.462856     -0.342306     -0.205200
O       1.87012      0.03473      2.59139        -0.003074      0.417516      0.043334
O       1.97846     15.30974     15.77552        -0.474546      0.256239     -0.332517
O      13.32123      3.99010      2.53540         0.114696      0.048351      0.040478
O      13.49337      4.06149     15.74724        -0.509612     -0.424019     -0.288239
O      13.54051     15.51133      2.60085        -0.000323      0.626322      0.475351
O      13.52654     15.53431     15.79608        -0.562189      0.363495     -0.588529
O       1.90122      3.92202      7.11758         0.141685     -0.389552      0.002990
O       1.88293      0.09448      7.12423         0.105085     -0.993450     -0.311784
O      13.38137      4.00312      7.11162        -0.000462      0.395105     -0.140548
O      13.42127      0.25537      6.97261         0.027981     -0.949542      0.289021
O       1.78862      3.85307     11.34514         0.164197      0.086674      0.545524
O       1.98879     15.38483     11.45553        -0.289072     -0.821638     -0.239460
O      13.56838      4.03261     11.42193        -0.226258     -0.346833     -0.123991
O      13.43363     15.54261     11.58032         0.032252     -0.049450     -0.024852
O       1.90274      7.66169      2.77122        -0.316197     -0.235615     -0.233365
O       1.85467      7.71901     15.91586         0.845061     -0.242907     -0.960098
O      13.47028      7.78094      2.70230        -0.055313      1.236228     -0.264763
O      13.39553      7.83793     15.70982        -0.597887      0.204804      0.245715
O       2.04908      7.72826      6.97427        -0.432585      0.350256      0.144224
O      13.37211      7.84632      6.94086        -0.068334      0.530764      0.231616
O       1.94146      7.70627     11.42793         0.405107      0.232272      0.328987
O      13.23652      7.86096     11.41476         0.188631      0.160421     -0.085122
O       1.96137     11.52062      2.75271         0.028135      0.201811     -0.210383
O       1.77369     11.39975     15.91133         0.893369      0.959574     -1.007909
O      13.39981     11.68324      2.60893        -0.670059     -0.561321     -0.127438
O      13.39891     11.65209     15.87803         0.468890     -0.115003     -0.243019
O       1.88147     11.59259      6.92795        -0.181978     -0.520734      0.466601
O      13.58747     11.70046      6.86269        -0.991121     -0.028076      0.900651
O       1.81975     11.48530     11.46276         0.458999      1.314492     -0.495226
O      13.51939     11.64980     11.42729        -0.086384      0.344327     -0.069723
O       5.80143      3.82900      2.76376        -0.094760     -0.223789     -0.152931
O       5.68536      3.89598     15.78908         0.617604      0.458293     -0.236771
O       5.71928     15.44361      2.75938         0.125121     -0.304470     -0.612873
O       5.70586     15.37278     15.71643        -0.358874     -0.136524      0.276311
O       5.79173      3.88471      7.26037         0.029285      0.371221     -0.283403
O       5.65377     15.39940      7.19472         0.144646     -0.953168      0.143680
O       5.77694      3.92793     11.41580        -0.050440     -0.429382     -0.223729
O       5.58917     15.39017     11.45339         0.783996      0.593879     -0.243904
O       5.77980      7.75476      2.73496         0.393187     -0.508096      0.104261
O       5.77344      7.81342     15.84122        -0.030335      0.054639     -0.286916
O       5.58246      7.72911      6.98027         0.695314      0.364082     -0.310975
O       5.63516      7.79596     11.42762         0.701486     -1.529224     -0.071658
O       5.55182     11.60602      2.71307         0.780717     -0.069108     -0.176622
O       5.68776     11.60736     15.87846         0.689938     -0.083783     -0.709432
O       5.74270     11.60261      7.05979         0.191600      0.245098     -0.008010
O       5.80243     11.56329     11.39120         0.215840     -0.283339     -0.329719
O       9.55406      3.85808      2.74206         0.611418      0.884205      0.104998
O       9.57262      3.98688     15.71984         0.129144     -0.526514      0.012061
O       9.66000     15.48074      2.61358        -0.410376     -0.107956      0.063112
O       9.64945     15.39583     15.65734         0.191222      0.896844      0.336939
O       9.53854      3.91348      7.11239        -0.180857      0.613225     -0.126628
O       9.69315     15.46266      6.92405         0.014299     -0.577657      0.409324
O       9.58353      3.88188     11.54352        -0.586599     -0.012625     -0.793340
O       9.58428     15.43743     11.44497         0.306381     -0.114986     -0.165144
O       9.41829      7.75263      2.71291        -0.265789      0.844593     -0.415060
O       9.58466      7.86110     15.74230        -0.037109     -0.833439     -0.040023
O       9.51385      7.73528      7.12276         0.570406      0.107550     -0.519885
O       9.69545      7.78942     11.51632        -0.415211     -0.492014     -0.501735
O       9.75480     11.61656      2.68525        -0.606497      0.186588     -0.044827
O       9.60934     11.66044     15.81132        -0.620499     -0.141501     -0.308835
O       9.58271     11.55913      6.91945         0.372181      0.916862      0.212012
O       9.38910     11.52683     11.42025         0.896925      0.695058     -0.175285
