  # total energy = -7880.37412072 
CRSYTAL
PRIMVEC
    15.3600000000000000    0.2300000000000000    0.0000000000000000
     0.0000000000000000   15.3600000000000000    0.0000000000000000
     0.0000000000000000    0.0000000000000000    17.440000000000000
PRESSURE
-0.365726 -0.036789 -2.81865 0.174401 -0.043239 -1.48804
PRIMCOORD
320 1
Pb       3.77857      3.89481      4.50857        -0.184392     -0.262429     -1.136896
Pb       3.86631      3.75196      0.01117         0.208552      0.399835     -0.582306
Pb       3.90206     15.38924      4.26583        -0.561665      0.173599     -0.340289
Pb       3.87394     15.41347     17.39547        -0.038131     -0.408669     -0.395424
Pb      15.18852      4.11069      4.40659         0.578747     -0.223997     -0.709360
Pb      15.30866      4.07391     17.37226         0.185650     -0.137998      0.280342
Pb       0.06106     15.22970      4.29869        -0.073635      0.327429     -0.568827
Pb       0.08424      0.01767     17.38958        -0.334579     -0.251013     -0.114433
Pb       3.80869      3.92511      8.77923         0.095522     -0.254285     -0.981965
Pb       3.84587     15.35267      8.66368        -0.296415      0.884278     -0.316213
Pb      15.31700      3.86555      8.73067         0.085713      0.065972     -0.834267
Pb      15.30022      0.26099      8.71596        -0.094566      0.124594     -0.092806
Pb       3.67898      3.86595     12.99588         0.390718     -0.160074     -0.019688
Pb       3.90371     15.26442     12.98372        -0.660755      0.058836     -0.216034
Pb      15.32827      4.07558     13.04208        -0.170845     -0.314341     -0.483388
Pb      15.33927     15.50526     13.07898         0.083946     -0.480064     -0.731157
Pb       3.75965      7.72160      4.36105         0.045805      0.083423     -0.515804
Pb       3.85561      7.62167      0.02041         0.341387      0.014763     -1.224972
Pb       0.13915      7.82155      4.35228        -1.023837     -0.508347      0.342319
Pb       0.03464      7.64581      0.00577        -0.522906     -0.157080     -0.439869
Pb       3.88054      7.78940      8.75853         0.251182      0.121906     -0.225323
Pb       0.10933      7.59672      8.75378        -0.251036      0.490877     -0.796075
Pb       3.83176      7.70592     13.15713        -0.818137      0.306769      0.275374
Pb      15.32410      7.89857     13.05742         0.147938      0.517071     -0.089698
Pb       3.75424     11.69376      4.40683        -0.139715     -0.442156     -0.818089
Pb       3.77035     11.54544      0.00460         0.606729      0.276265     -0.713368
Pb      15.27706     11.79631      4.34635        -0.050816     -0.357978      0.119999
Pb      15.19293     11.68440     17.35391         0.021639      0.193668     -0.160726
Pb       3.94673     11.66801      8.74639        -0.186267     -1.234905     -0.446068
Pb       0.07246     11.53391      8.83557        -0.643099     -0.503726     -0.881604
Pb       3.88883     11.57396     13.14614        -0.690139      0.090534     -0.493929
Pb      15.32753     11.73174     13.14068        -0.361391      0.327131     -0.635646
Pb       7.73818      3.98283      4.37006        -0.163223      0.096446     -1.065807
Pb       7.74606      3.83663      0.00500        -0.206805      0.086031     -0.587611
Pb       7.79276     15.44859      4.27961        -0.213280     -0.121813     -0.304536
Pb       7.60780     15.37083     17.38720         0.235333      0.373383     -0.380056
Pb       7.70319      3.95424      8.74719         0.021884     -0.282614     -0.541598
Pb       7.63145      0.14944      8.64484         0.588399     -0.219623     -0.393569
Pb       7.62787      4.00362     13.08064         0.262267     -0.393819     -0.618350
Pb       7.67335      0.28170     12.96440         0.477511     -0.939449     -0.390815
Pb       7.64942      7.80329      4.28414        -0.089333     -0.295025     -0.821237
Pb       7.59708      7.71049     17.39690        -0.458742      0.598073     -0.724518
Pb       7.57874      7.63090      8.66328        -0.016441      0.808315      0.354219
Pb       7.68056      7.70491     13.04460         0.113216      0.622956      0.048220
Pb       7.64095     11.50870      4.20695        -0.109867      0.305618     -0.194354
Pb       7.73315     11.66136     17.41567        -0.442065     -0.550756     -0.750396
Pb       7.71920     11.60198      8.57408         0.324705      0.064758      0.261919
Pb       7.65832     11.57662     12.93170        -0.255348      0.296634     -0.094799
Pb      11.54141      3.94795      4.24569        -0.170955      0.261510     -0.091327
Pb      11.56411      4.06022     17.37679        -0.609551     -0.288336     -0.454735
Pb      11.44663     15.39047      4.33768         0.219221      0.106938     -0.885786
Pb      11.60561      0.22489     17.41516        -0.150744     -0.225083     -0.537886
Pb      11.53783      4.15370      8.65198        -0.308309     -0.761776     -0.185604
Pb      11.41390     15.49381      8.72330         0.002304      0.074868     -0.271258
Pb      11.52968      4.08664     13.03775        -0.363506     -0.141429     -0.387087
Pb      11.40762      0.17225     13.09344        -0.001423     -0.420361     -0.797101
Pb      11.58529      7.70751      4.36445         0.375359      0.967227      0.316310
Pb      11.50259      7.84991      0.00193         0.083770      0.441526     -0.660738
Pb      11.44856      7.84523      8.74002         0.033416      0.604297     -0.852818
Pb      11.50947      7.87563     13.04054        -0.001691      0.169015     -0.341873
Pb      11.38133     11.76795      4.44202         0.427826     -0.639387     -0.563998
Pb      11.50023     11.61887      0.09910        -0.205480     -0.284795     -1.147492
Pb      11.59482     11.69406      8.73418        -0.164183     -0.333891     -0.957103
Pb      11.42265     11.66215     13.11308         0.456086      0.121464     -0.612738
Ti       1.83259      1.91090      2.16111        -0.112382      0.183170      0.571357
Ti       1.90925      1.88741     15.38810         0.723250     -0.256455      0.609102
Ti       1.82611     13.40180      2.17744         0.312688      0.750503     -0.173050
Ti       1.82442     13.41968     15.41081         1.565321     -0.067436     -1.088523
Ti      13.31911      2.01693      2.19062         1.141028      0.504137      0.841194
Ti      13.51294      2.11361     15.26941        -0.697560     -0.775144      1.059665
Ti      13.34246     13.53247      2.16163         0.450687      1.195970      0.078744
Ti      13.35614     13.61402     15.34311         0.881589     -0.231302     -0.785353
Ti       1.89334      1.95921      6.70264        -0.411577     -0.008350     -0.600643
Ti       1.89270     13.45149      6.83138        -0.811041      0.256682     -1.312554
Ti      13.32967      2.07403      6.57297         0.647362      0.321251     -0.497089
Ti      13.43458     13.69957      6.69741        -0.323773     -2.289368     -0.511686
Ti       1.85212      1.89942     11.00666         0.412577     -1.079566     -1.003334
Ti       1.96379     13.45685     10.84049        -0.736377     -0.168130      3.086310
Ti      13.36857      2.09337     11.07322         0.314451     -0.129469     -0.314493
Ti      13.38419     13.66321     10.98273        -0.002086     -0.366696      1.862684
Ti       1.87269      5.64007      2.26730        -0.020616      0.290348      1.169372
Ti       1.81245      5.68724     15.41549         0.736834      2.040073     -0.199639
Ti      13.42792      5.93948      2.27736         0.835392      0.740369      1.734254
Ti      13.33042      5.90725     15.29743         0.536396      1.168680      0.805941
Ti       1.95198      5.83493      6.60835        -1.339900     -1.035992      1.105110
Ti      13.36561      5.95841      6.68506         1.209666      0.542162     -1.060481
Ti       1.84255      5.71373     10.96087         0.714115      1.261865      1.892325
Ti      13.44558      5.94894     10.96082        -1.100236      0.368983      0.958609
Ti       1.83492      9.56072      2.16402         0.254694      0.422691      1.673234
Ti       1.84608      9.57731     15.46615         1.010038     -0.640244     -1.281056
Ti      13.40757      9.81862      2.34796        -0.941544     -0.841193     -0.422843
Ti      13.40138      9.71303     15.40627        -0.861876      0.775330     -0.660379
Ti       1.93273      9.60769      6.70004        -0.702088      0.768069      0.015444
Ti      13.45511      9.72685      6.80365         0.099482      1.128900     -0.886358
Ti       1.85766      9.64657     11.06286        -0.610599     -0.578717     -0.912853
Ti      13.34571      9.85511     10.98765         0.203290     -0.003587      0.261322
Ti       5.70764      2.00765      2.28464         0.029035      0.676340     -0.181558
Ti       5.81388      1.93063     15.26526        -0.420447      1.064242      2.342840
Ti       5.70744     13.52911      2.30094         0.098080     -1.044954     -0.822095
Ti       5.74083     13.50092     15.22912        -0.764782     -0.525905      0.487811
Ti       5.73843      1.92859      6.65731        -0.238976      0.864430     -0.357002
Ti       5.69605     13.45956      6.55610         1.794944     -0.024154      0.489712
Ti       5.68000      1.98460     10.97941         0.234918     -0.165210      0.054022
Ti       5.74676     13.50819     10.82603         0.476526     -0.367803      3.009779
Ti       5.68247      5.83807      2.34258         0.605817     -0.060764      0.178551
Ti       5.75587      5.77481     15.31255        -0.574420      0.876455      0.701355
Ti       5.71697      5.82477      6.61951        -0.396589     -0.514971     -0.152063
Ti       5.65220      5.85783     11.18041         0.376207     -0.002763     -1.173965
Ti       5.60007      9.67797      2.20552         2.252819     -0.050144     -1.504066
Ti       5.71571      9.75148     15.32508         0.378950     -1.282572      1.147085
Ti       5.78675      9.67705      6.59596        -0.702945      0.367212      0.069728
Ti       5.67175      9.64640     11.14463         0.155660      0.320448     -1.091728
Ti       9.53438      2.04285      2.23426         0.563344     -0.014297     -0.949628
Ti       9.61049      2.00765     15.36597        -0.340516      0.537449     -0.521569
Ti       9.51320     13.49816      2.17559         0.717215      0.547854      1.419715
Ti       9.55601     13.57467     15.25567         0.125234     -0.512728      1.260533
Ti       9.58840      2.01977      6.60848        -0.059474      0.413089      1.217942
Ti       9.58834     13.53863      6.61539        -0.429564     -0.330286     -0.239175
Ti       9.54685      2.05937     11.03939         0.422178     -0.706221     -0.533413
Ti       9.54655     13.47751     10.87222         0.396727      1.664016      0.579973
Ti       9.64327      5.98812      2.20797        -0.828833     -1.081091      2.301354
Ti       9.56858      5.96538     15.27643         0.367609     -0.291273      0.565776
Ti       9.51793      5.88683      6.57359         1.214091      0.362894     -0.567919
Ti       9.53445      5.90192     11.00419         0.806853     -0.042056      0.045810
Ti       9.56937      9.67333      2.29296         0.597297      1.104219      0.305461
Ti       9.54078      9.76656     15.27300         0.041048     -0.644784      0.076600
Ti       9.55213      9.68981      6.51124         1.344358      0.596337      1.174946
Ti       9.53751      9.75082     11.03353         0.136972      0.172598     -0.590013
O       1.89846      1.85810      0.36756        -0.040779      0.393595      0.295927
O       1.90637      1.90056     13.63829        -0.182714      0.314034     -0.273261
O       1.93961     13.56189      0.39778        -0.002738     -0.843585      0.551311
O       1.95351     13.44370     13.57465        -0.377013      0.049280      1.088453
O      13.34450      2.00383      0.40972        -0.217306      0.221834      0.104526
O      13.61206      2.20168     13.51940        -0.211331     -0.064269      0.071543
O      13.39294     13.52042      0.34267         0.073950      0.148525      1.059441
O      13.44915     13.60525     13.48507         0.028976      0.045937      1.745396
O       1.78369      2.05054      4.91618         0.451820     -0.722610      0.193415
O       1.87029     13.58655      4.97675         0.002682     -0.326301      0.907746
O      13.37323      2.17370      4.72156        -0.068191     -0.342877      1.734719
O      13.38944     13.58072      4.84820         0.161235      0.560160      1.381574
O       1.84536      1.86145      9.18201         0.081004      0.576616      0.982256
O       2.00673     13.35426      9.11865         0.021421      0.638492     -1.260226
O      13.47793      2.08090      9.27565        -0.322244      0.193969      0.591832
O      13.34541     13.73527      9.25353        -0.055878     -0.174668     -0.907108
O       1.83466      5.66495      0.52105        -0.219126      0.190891     -1.108919
O       1.80201      5.85027     13.60668         0.183583     -0.916155      1.192571
O      13.38393      6.03338      0.54705        -0.177753     -0.297719     -0.648325
O      13.35845      5.91726     13.53443         0.200395     -0.163922      0.221752
O       2.03316      5.78395      4.88086         0.203334     -0.100986     -0.655351
O      13.35124      6.03411      4.84736        -0.025456     -0.627582      1.312282
O       1.91677      5.74078      9.25379         0.075842      0.061385     -1.385034
O      13.25665      5.88926      9.21778         0.376370     -0.057420     -0.481622
O       1.83790      9.55594      0.40420         0.251772      0.210710      0.544769
O       1.85088      9.45915     13.65974        -0.506975      0.389112      0.598961
O      13.35288      9.82269      0.52467         0.155431      0.253304      0.567674
O      13.49942      9.63038     13.62642        -0.424087      0.525747      0.394016
O       1.84708      9.62620      4.90261         0.575174      0.185311      0.385651
O      13.51628      9.68260      5.03327        -0.069450      0.350720     -0.552605
O       1.68610      9.51982      9.15921         0.799546      0.131311      2.187202
O      13.35111      9.88620      9.18097         0.207594     -0.536325      1.070789
O       5.77492      2.06267      0.48421         0.082842     -0.176783      1.125370
O       5.82181      1.91323     13.52859        -0.055718      0.326074     -0.568874
O       5.69778     13.49585      0.49932         0.086812      0.073712      0.742520
O       5.51599     13.37558     13.42375         0.904301      0.521123      1.342834
O       5.64326      2.09374      4.87381         0.187218     -0.430390      0.713378
O       5.69072     13.46666      4.78750        -0.302049     -0.020018     -0.399504
O       5.69901      1.88724      9.19973         0.177075      0.359962     -0.022565
O       5.63622     13.36865      9.11493         0.374625      0.639382     -1.078372
O       5.88660      5.93493      0.57975        -0.457110     -0.286373      0.308215
O       5.67572      5.85405     13.49653         0.559438     -0.540110      0.706143
O       5.58550      5.79879      4.81352         0.311476      0.062299      1.306315
O       5.72752      6.03478      9.34830        -0.002363     -0.390887      0.599950
O       5.71055      9.67780      0.30846        -0.122394     -0.069960      2.053214
O       5.68812      9.80542     13.54786         0.154999     -0.264772     -0.880483
O       5.73044      9.72633      4.82678         0.129047     -0.098975      0.436790
O       5.70099      9.50902      9.33637        -0.423568      0.098321      0.710542
O       9.59633      1.96485      0.38562        -0.054560      0.300567      1.282606
O       9.50412      1.94364     13.49689        -0.135947      0.364684      1.582446
O       9.55277     13.49577      0.42824        -0.201029     -0.040082     -0.549761
O       9.69085     13.55572     13.51912        -0.391688     -0.053996      0.122133
O       9.54647      1.97451      4.87288         0.217775      0.033293     -0.764158
O       9.61716     13.58124      4.70327         0.186680      0.162255      1.847804
O       9.54329      2.05156      9.22206        -0.117307     -0.006795      0.724895
O       9.56276     13.53776      9.10149         0.045963      0.225158     -0.013130
O       9.84337      5.98600      0.49086        -0.570037     -0.185370     -0.591100
O       9.63904      5.93201     13.49207        -0.450910     -0.323742      0.203121
O       9.60141      5.95510      4.78678        -0.373396     -0.238405      0.803538
O       9.45211      5.88820      9.17900         0.340509      0.107331      0.926594
O       9.56639      9.77627      0.52568         0.158422     -0.039351     -0.124595
O       9.58118      9.81658     13.48634        -0.334960      0.043130     -0.182829
O       9.51474      9.88030      4.74061         0.048669     -0.545626      0.573454
O       9.55411      9.83210      9.26027         0.184910     -0.561927      0.326912
O       3.80011      2.01969      2.53364         0.371095     -0.388328      0.373734
O       3.83888      1.97369     15.82047         0.151179     -0.009128     -0.497828
O       3.75775     13.51942      2.70171         0.084212     -0.374708      0.118069
O       3.89130     13.50822     15.75530         0.104767     -0.155000      0.080474
O      15.32615      2.21700      2.49454        -0.374280     -0.787495      0.071721
O       0.01415      1.89687     15.82799        -0.268798      0.196385     -0.384915
O      15.25703     13.63723      2.70243         0.972104      0.624795     -0.287954
O       0.04030     13.36938     15.84892        -0.869756      0.317174     -0.448225
O       3.83139      1.99021      7.10514         0.470712     -0.160317     -0.089633
O       3.89743     13.44675      7.03137        -1.536533      0.078057      0.059357
O      15.33017      2.04467      7.08668        -1.315201      0.390403     -0.013673
O      15.30554     13.67515      7.23816         0.327614      0.334386     -0.628796
O       3.83616      1.92218     11.44080        -0.237331      0.323171     -0.123485
O       3.83248     13.54105     11.30843         0.101295      0.037374     -0.384661
O      15.35539      2.19681     11.39198        -0.289233      0.152175      0.184746
O      15.30956     13.52773     11.35389         0.871235      0.482714     -0.190889
O       3.73577      5.75566      2.63698         1.255546      0.104348      0.162129
O       3.90084      5.72567     15.84846        -1.108930      0.147857     -0.295906
O       0.04457      5.73035      2.80614        -1.385542      0.324171     -0.404518
O      15.21558      6.13129     15.79673         0.729171     -1.066713     -0.222952
O       3.79180      5.71634      7.15632         1.096248      0.211552     -0.283356
O      15.34521      5.99059      6.90941        -0.104151     -0.207524      0.513602
O       3.78311      5.86491     11.52489        -0.475903     -0.535609     -0.448513
O      15.35536      5.88670     11.26926        -1.060853     -0.337676      0.224465
O       3.88893      9.78827      2.58026        -3.397290     -0.400122      0.104672
O       3.87041      9.45997     15.65250        -1.251289      0.825523      0.502225
O      15.30819      9.78993      2.78773         1.249505      0.415943     -0.832051
O      15.28800      9.68116     15.83141         0.609058      0.606209      0.155133
O       3.85956      9.81868      7.04709         0.040791     -0.770336      0.006606
O       0.03803      9.59643      7.02792         0.211490     -0.511665      0.603303
O       3.66697      9.55611     11.59759         0.870379     -0.019892     -0.788540
O      15.23668      9.93121     11.57177         1.075254     -0.298206     -0.791589
O       7.71371      1.93648      2.74216        -1.095327      0.342281     -0.143724
O       7.65923      2.05667     15.89119         0.131621     -0.141231     -0.797043
O       7.64418     13.48305      2.62407        -0.030864      0.398212     -0.125133
O       7.62385     13.60813     15.69720         0.331105     -0.945388     -0.220521
O       7.68470      2.02335      7.01426        -0.596702     -0.035619      0.243439
O       7.70622     13.50173      7.00800        -0.490269      0.219064     -0.213019
O       7.64801      2.02773     11.40713        -0.533831      0.232075     -0.037956
O       7.65443     13.50023     11.24988        -0.659499     -0.037489     -0.007894
O       7.67408      5.96408      2.73532        -0.200155      0.277681     -0.034161
O       7.74627      5.95262     15.73237        -0.733209     -0.577196     -0.197773
O       7.65742      5.95097      7.00089        -0.723414     -0.179794     -0.202153
O       7.66647      5.83614     11.47642        -0.122785      0.365183      0.021215
O       7.69632      9.64662      2.62670        -0.890198      0.159979      0.240647
O       7.62420      9.63766     15.62532         0.617270     -0.058008      0.358194
O       7.69363      9.83889      7.06871        -0.003167     -1.340965     -0.783905
O       7.58420      9.80526     11.36309         0.397475     -0.634082      0.503002
O      11.41853      2.15753      2.68361         0.526960     -0.060143     -0.320303
O      11.49255      1.98936     15.69541         0.355430      0.076531     -0.263544
O      11.50031     13.55222      2.52885        -0.389484      0.151868      0.280470
O      11.57196     13.54965     15.74490        -1.446074      0.331497     -0.297704
O      11.50232      2.01810      7.09321        -0.271495      0.090221     -0.454301
O      11.47474     13.60946      7.05301         0.167599      0.123077     -0.262736
O      11.49004      2.01258     11.57409        -0.117254      0.386351     -0.627351
O      11.45771     13.62485     11.36144         0.118035      0.254841     -0.064691
O      11.51107      6.03066      2.80908         0.001534     -1.120730     -1.052241
O      11.49806      5.90809     15.79403         0.274195     -0.188929     -0.224124
O      11.48765      5.88312      7.00831        -0.185067      0.141397      0.392231
O      11.48082      5.90931     11.47998        -0.580425      0.192829     -0.639686
O      11.56052      9.84043      2.74684        -0.595429      0.039734     -0.136685
O      11.42525      9.91182     15.69407         1.259735     -0.628282      0.354911
O      11.54728      9.82745      7.03510        -1.425469     -0.430659      0.147322
O      11.42614      9.76388     11.48456         1.001263     -0.028021     -0.273810
O       1.83681      3.82727      2.67521         0.339392     -0.708716     -0.010774
O       1.88498      3.88260     15.80934        -0.459874     -0.683684     -0.311783
O       1.88928     15.33842      2.47315        -0.379048      0.474261      0.920162
O       1.91160     15.30809     15.75309        -0.066726      1.228572     -0.014435
O      13.47139      4.03001      2.56136        -0.784615      0.290061      0.247401
O      13.45371      4.01044     15.72982        -0.169639      0.232804     -0.040724
O      13.32306     15.54625      2.57671         0.065863     -0.293306     -0.017002
O      13.48511      0.20514     15.66230         0.069418     -0.121481     -0.052378
O       1.86215      3.81921      7.01576         0.158854      0.674673      0.630618
O       1.83820      0.05715      7.20491         0.872356     -1.199316     -0.291260
O      13.31729      3.94227      7.01843         0.587276      0.350218      0.029448
O      13.33597     15.49522      7.09900         0.334781      1.384955     -0.366283
O       1.92406      3.76183     11.32294         0.305752      1.481569      0.547811
O       1.93994     15.37586     11.35108        -0.445949     -0.511480      0.021187
O      13.25654      4.05470     11.42553         0.933835     -0.281746     -0.086233
O      13.48288      0.22099     11.48450        -0.076061     -0.120875     -0.113643
O       1.93416      7.69471      2.80143         0.242119      1.081481     -1.122061
O       1.82966      7.67075     15.92272         0.620063     -0.904128     -0.154559
O      13.40793      7.92122      2.76163         0.188483     -0.503637     -0.452296
O      13.30428      7.91770     15.82038        -0.166831     -1.490492     -0.023697
O       1.94583      7.69339      7.02433         0.252314      0.013096      0.180964
O      13.39035      7.82590      7.19321        -0.100255     -0.579050      0.238089
O       1.76026      7.65665     11.44398         0.040297      0.156436     -0.659581
O      13.39708      7.87743     11.39800         0.126669     -0.410780     -0.482514
O       1.83041     11.55068      2.64082         0.292867     -0.661217     -0.282103
O       1.95721     11.49673     15.71887        -0.058279     -0.286565      0.403633
O      13.48483     11.77036      2.69621        -0.109030     -1.048996     -0.020125
O      13.56031     11.70693     15.72583        -0.338564     -0.074937     -0.158089
O       1.81370     11.57316      7.15717         0.547536      0.147199     -0.387063
O      13.46937     11.67885      7.15123        -0.077483      1.307307     -0.016168
O       2.02882     11.58887     11.24875        -0.470098     -0.901774      0.110221
O      13.30024     11.70494     11.44574         0.041093     -0.068760     -0.295230
O       5.78595      3.93099      2.73923         0.118979     -0.336648     -0.223695
O       5.79205      3.90764     15.78358         0.281460     -0.178625     -0.383448
O       5.74051     15.40492      2.65806        -0.126064      0.725086      0.231232
O       5.82984      0.09779     15.76537        -0.501579     -0.327868     -0.508800
O       5.83293      3.95128      7.17028        -0.408213      0.136348     -0.339614
O       5.75803     15.35575      6.90108        -0.055316      1.014681      0.396117
O       5.69335      3.92256     11.39604         0.074828     -0.110413      0.079142
O       5.75109     15.42689     11.30911         0.069724     -0.330787     -0.058393
O       5.57863      7.79443      2.78218         0.532436     -0.318984     -0.268588
O       5.68701      7.67620     15.82392         0.678239     -0.339414     -0.287124
O       5.70040      7.76285      7.08173        -0.041464     -0.243865     -0.388992
O       5.70784      7.73504     11.59257         0.229604      0.437480     -0.127937
O       5.70071     11.56270      2.56203         0.407669      0.567915      0.411861
O       5.82081     11.57848     15.67239        -0.492624      1.237094      0.147372
O       5.78292     11.57684      6.99195        -0.117032      0.168678      0.073586
O       5.68204     11.56432     11.33403        -0.527624      0.425487      0.007555
O       9.41748      3.99782      2.60896         0.700519      0.059603     -0.073294
O       9.62176      3.95959     15.76453        -0.094299     -0.046930     -0.170519
O       9.61527      0.15196      2.64890         0.022445     -0.796631      0.052096
O       9.40009     15.44096     15.69359         1.029053      0.193350     -0.154315
O       9.59286      4.03024      6.89435        -0.286960     -0.970303      0.441461
O       9.53123     15.50106      7.07242         0.227392     -0.336635     -0.289687
O       9.49842      3.95935     11.31450         0.405562      0.567372      0.392995
O       9.54769     15.47477     11.40584        -0.078030      0.109011     -0.167783
O       9.60401      7.84383      2.67520         0.144022     -0.443724     -0.077614
O       9.63263      7.82502     15.61020         0.292908     -0.118574      0.338203
O       9.72534      7.80508      6.94186        -0.747623      0.665460      0.076848
O       9.60360      7.88624     11.47141        -0.669801     -1.416224     -0.481594
O       9.60744     11.66701      2.67802        -0.253821     -0.107859     -0.297885
O       9.62136     11.57075     15.68878        -1.059441      2.466148      0.317591
O       9.63832     11.64386      6.98352        -0.142061      0.143112     -0.329258
O       9.59679     11.67937     11.29411        -0.094513     -0.369416      0.679273
