  # total energy = -7883.92431960 
CRSYTAL
PRIMVEC
    15.3600000000000000    0.2300000000000000    0.0000000000000000
     0.0000000000000000   15.3600000000000000    0.0000000000000000
     0.0000000000000000    0.0000000000000000    17.440000000000000
PRESSURE
1.29136 1.1902 -3.09431 0.111777 0.357714 -1.57617
PRIMCOORD
320 1
Pb       3.75901      3.84182      4.27269         0.326369     -0.101068      0.385487
Pb       3.80366      3.93139     17.35658        -0.085989      0.301961      0.264599
Pb       3.69225      0.08029      4.36425         0.397809     -0.256271      0.425060
Pb       3.73057     15.39823     17.25850         0.330418     -0.151751      0.312482
Pb      15.35816      4.00527      4.35529         0.125808      0.222365     -0.282549
Pb      15.32278      4.02869     17.31584         0.012523      0.342580      0.037817
Pb      15.31364      0.35481      4.30588         0.154773     -0.393332      0.287186
Pb      15.34070     15.52566     17.31211        -0.213339      0.124423      0.511900
Pb       3.80422      4.02415      8.69278         0.087220     -0.183652      0.132627
Pb       3.70706      0.11236      8.77707         0.370504     -0.491066      0.125555
Pb       0.01668      3.98758      8.86053        -0.186210      0.087783     -0.320541
Pb      15.28513      0.27847      8.74830        -0.076882     -0.256622     -0.046486
Pb       3.94204      3.98276     13.08254         0.149086     -0.336297     -0.275707
Pb       3.82753      0.13081     13.03472         0.464695     -0.340224      0.215898
Pb      15.32464      4.06962     13.04479        -0.206593      0.226247     -0.321390
Pb      15.29068     15.57827     13.05080         0.332171     -0.075041     -0.041360
Pb       3.87450      7.71173      4.27129        -0.262431      0.282869      0.214260
Pb       3.83279      7.72698      0.02218        -0.442362     -0.334723     -0.329295
Pb      15.28480      7.75291      4.24783         0.169369      0.423143      0.283749
Pb       0.03802      7.54452     17.36951         0.096753      0.149787      0.056052
Pb       3.78614      7.81663      8.55816        -0.378752     -0.329417      0.519854
Pb      15.22527      8.05033      8.56051         0.354403     -0.713431      0.691546
Pb       3.91728      7.80374     13.00048        -0.087199      0.045091      0.279094
Pb      15.33052      7.94521     13.04301        -0.475287     -0.153361      0.291086
Pb       3.86622     11.53227      4.33278        -0.217233      0.352342      0.194586
Pb       3.90519     11.51179     17.39294        -0.380738      0.250964      0.150297
Pb       0.00739     11.45151      4.28215        -0.052150      0.413246      0.484986
Pb       0.10776     11.45941     17.37274        -0.573435     -0.041881      0.394599
Pb       3.70171     11.53756      8.65392         0.146738      0.418800     -0.091676
Pb      15.21773     11.76317      8.56168         0.368097      0.185245      0.229435
Pb       3.91522     11.52885     13.02440         0.641796     -0.140001      0.271766
Pb      15.29380     11.71619     12.98042        -0.104927     -0.142897      0.892942
Pb       7.58428      3.79516      4.33764        -0.031585      0.215938      0.182130
Pb       7.58404      3.97163      0.03006        -0.121280      0.012094      0.043786
Pb       7.52303      0.18059      4.37302         0.078299     -0.495488     -0.194972
Pb       7.63510     15.43904     17.41076         0.004672     -0.123685     -0.186895
Pb       7.75033      3.93885      8.68214        -0.314812      0.126191     -0.509814
Pb       7.75528      0.18998      8.75343        -0.510730     -0.238394     -0.289647
Pb       7.73550      3.88354     13.02540        -0.101762      0.071937      0.254926
Pb       7.68883     15.33168     13.11848        -0.578866      0.343303     -0.127697
Pb       7.57488      7.73374      4.32744         0.657339      0.150150      0.286501
Pb       7.72607      7.72823      0.13316         0.258922     -0.446921     -0.046556
Pb       7.64275      7.92751      8.55583         0.474845     -0.305668      0.316875
Pb       7.62442      7.74357     13.03275         0.147086      0.209768      0.283452
Pb       7.63982     11.73188      4.41852        -0.014286      0.019236     -0.155241
Pb       7.65439     11.60180      0.05660         0.296632      0.381310      0.084016
Pb       7.61980     11.69157      8.62804         0.444511     -0.305019      0.642109
Pb       7.68721     11.49694     13.04359        -0.155787      0.111744     -0.069214
Pb      11.56242      3.92600      4.23642        -0.418511      0.318171      0.726081
Pb      11.38081      3.86530     17.34551         0.630544      0.375540      0.051008
Pb      11.47476      0.22156      4.36061         0.143656     -0.470786      0.263349
Pb      11.43765     15.40875     17.36162         0.300986     -0.007591      0.449966
Pb      11.51948      3.96886      8.73055         0.106474      0.491777     -0.097772
Pb      11.59143      0.20668      8.71706        -0.110353     -0.365008      0.038232
Pb      11.43327      3.80725     13.05406         0.460285      0.677494      0.324302
Pb      11.50029     15.41363     13.08138        -0.157217      0.161305      0.029362
Pb      11.58526      7.76481      4.26301        -0.377393      0.231272      0.292408
Pb      11.52556      7.73060      0.02014         0.101900      0.056732     -0.188464
Pb      11.49133      7.89591      8.53352        -0.031490     -0.089890      0.542985
Pb      11.36395      7.74496     13.09123         0.977967      0.105298      0.196890
Pb      11.53565     11.79275      4.23458         0.059894     -0.658570      0.367008
Pb      11.54595     11.48563      0.04068        -0.140600      0.514436      0.344638
Pb      11.47869     11.65517      8.67352        -0.455886      0.004632     -0.070912
Pb      11.50005     11.54923     13.06616         0.129779     -0.150038      0.078989
Ti       1.95563      1.98759      2.25858        -0.481835      0.346780     -0.752158
Ti       1.89303      1.95435     15.27602         0.107286     -0.103442     -0.666160
Ti       1.92668     13.50682      2.41313         0.013152      0.043672     -0.045695
Ti       1.83489     13.42225     15.36766         1.017575     -0.044874     -0.877199
Ti      13.43527      2.09914      2.28540         0.230415     -0.513216     -1.292858
Ti      13.41876      2.07905     15.36344         0.040359      0.844379     -1.452088
Ti      13.50253     13.65978      2.37804        -0.393658      0.130364     -2.130512
Ti      13.35568     13.55582     15.47538         0.206536      0.088812     -0.373082
Ti       1.86591      1.96725      6.80611        -0.324561      1.045994     -1.490759
Ti       1.91910     13.52121      6.70012        -0.394227     -0.864696     -1.160097
Ti      13.41776      2.12631      6.73587         0.114312      0.315940      0.133270
Ti      13.35372     13.63414      6.69976         0.493276      0.445669     -0.177170
Ti       1.89102      1.90442     11.13784         0.291170      0.260849     -0.443433
Ti       1.96564     13.34249     11.16088        -0.015237      1.515227     -2.094629
Ti      13.43188      2.07317     11.13245        -0.204376      1.031458     -1.092850
Ti      13.42926     13.59299     11.15047        -0.513917     -0.530107     -2.427592
Ti       1.95459      5.85239      2.34481        -0.964798     -0.702890     -1.965311
Ti       1.84298      5.76443     15.21905         0.558371      0.880938      1.989281
Ti      13.45344      5.90039      2.26067         0.417577     -0.102380     -1.103700
Ti      13.39735      5.92294     15.33933         0.245654      0.326318     -0.338915
Ti       1.85244      5.78919      6.65493        -0.147870      0.136209      0.321015
Ti      13.41058      5.93109      6.61403         0.151354     -0.025014     -0.047836
Ti       2.01054      5.80531     11.10753        -1.106906     -0.539074     -0.994827
Ti      13.44865      5.95750     11.09308         0.007156      0.482999     -0.606165
Ti       1.91708      9.66296      2.34419         0.224477     -0.047878      1.095682
Ti       1.95846      9.61411     15.38111         0.054220     -1.147894     -0.416284
Ti      13.47048      9.73117      2.37341        -0.411257      0.664491     -0.601435
Ti      13.47420      9.75800     15.51139         0.159093     -0.766069     -1.186552
Ti       1.87141      9.60887      6.50687         0.017739      0.459662     -0.228182
Ti      13.37867      9.79446      6.57828        -0.247470     -0.349294     -1.319834
Ti       1.92608      9.59657     11.08732         0.285666     -0.305850     -0.671885
Ti      13.46967      9.76930     10.97170        -0.497881     -0.751790      0.284189
Ti       5.69642      1.92293      2.24366         0.252162      0.775039     -0.077844
Ti       5.72604      1.99269     15.42051         0.522339     -0.559867     -1.479461
Ti       5.73945     13.47967      2.32540        -0.165982      0.488966     -0.033338
Ti       5.72528     13.44352     15.38316         0.483966      1.153760     -0.824660
Ti       5.65768      2.01152      6.76534         1.089965      0.186641     -0.770751
Ti       5.75405     13.57829      6.76726        -0.423629      0.037605     -0.386274
Ti       5.80656      2.02116     11.09308        -0.244916     -0.188495      0.064486
Ti       5.76676     13.53575     10.99538         0.742271     -0.076055     -0.797332
Ti       5.77295      5.82390      2.51320        -0.813469     -1.162324     -2.790938
Ti       5.69929      5.88564     15.48416        -0.004277     -0.588631     -1.445306
Ti       5.73244      5.85575      6.76006         0.253131     -0.953629     -1.723946
Ti       5.85441      5.92099     11.00153        -0.212235     -0.961247     -1.681840
Ti       5.78437      9.70287      2.30566        -0.531582      0.323880     -0.674116
Ti       5.84871      9.63837     15.55723        -0.873967      0.477677     -2.074764
Ti       5.73698      9.70929      6.66663         0.174697      0.865433     -0.066076
Ti       5.86410      9.68694     10.92296        -0.555899      0.266978     -0.481251
Ti       9.59847      1.97458      2.33325        -0.697301      0.713470     -1.569218
Ti       9.54664      1.99874     15.49597         0.186334     -0.016805     -1.895580
Ti       9.59532     13.55641      2.40208        -0.356703      0.250446     -1.012954
Ti       9.51596     13.45123     15.42108         0.656219     -0.093844      1.645241
Ti       9.62383      2.01726      6.71016        -0.600838      1.308143     -0.199006
Ti       9.56038     13.57849      6.69821        -0.145187     -0.227782     -0.871240
Ti       9.58581      1.96546     11.09183         0.117527      0.333794     -0.455608
Ti       9.59760     13.51742     11.11111        -0.494539     -0.533423     -1.869395
Ti       9.58354      5.82751      2.36727         0.591969      0.218118     -1.431801
Ti       9.53334      5.83304     15.40545         0.891784      0.728658      0.034443
Ti       9.59657      5.93966      6.70242        -0.015778     -0.587311     -1.478543
Ti       9.66639      5.91561     11.05885         0.399530     -0.299611     -0.257054
Ti       9.56754      9.68353      2.40183         0.868036      0.055713     -0.306501
Ti       9.57145      9.67113     15.55027         0.982317     -0.147868     -1.405626
Ti       9.55033      9.76539      6.52317         0.494743      0.429739     -0.078194
Ti       9.65830      9.68286     11.03596         0.079203      0.725799     -1.394303
O       2.00612      2.04867      0.47142        -0.162442     -0.509289      0.449486
O       1.88440      1.85799     13.47107        -0.265150     -0.180208      0.951166
O       1.98464     13.56540      0.64999        -0.231688     -0.097059     -0.208858
O       1.80137     13.38105     13.58076         0.284557      0.216715      0.472529
O      13.43764      2.01690      0.49570        -0.049682      0.528352      0.757863
O      13.46425      2.20134     13.48582        -0.013068     -0.553086      0.909643
O      13.53651     13.74842      0.50711        -0.191553     -0.169365      1.384186
O      13.33041     13.45676     13.68059         0.254616      0.578931     -0.189448
O       1.88014      2.08578      4.97475         0.047556     -0.338788      0.815673
O       1.97608     13.54010      4.90431        -0.290375      0.229128      1.056180
O      13.31357      2.08280      4.98789         0.259987     -0.130661     -1.114107
O      13.38001     13.78590      4.96380        -0.077297     -0.383356     -0.466070
O       1.82648      1.89821      9.31728         0.354123      0.101354      0.216845
O       2.11835     13.36075      9.26948        -0.508844      0.011313      1.531577
O      13.46304      2.15702      9.29544        -0.025515     -0.368309      0.653495
O      13.40168     13.54817      9.29834        -0.142586      0.257341      1.004585
O       1.86227      5.78130      0.52388         0.395373      0.014011      0.985756
O       1.84640      5.90411     13.51731         0.421451     -0.636263     -1.506684
O      13.54430      5.93916      0.44327        -0.291832     -0.349831      1.293315
O      13.47801      6.00999     13.55960         0.282891     -0.203268      0.026071
O       1.76851      5.84529      4.88760         0.286490     -0.237983     -0.201115
O      13.44385      6.06408      4.83043         0.246486     -0.279406      0.124951
O       2.07838      5.72343      9.28208        -0.361456      0.161176      0.812699
O      13.37963      5.92300      9.30197         0.136516     -0.013396     -0.060839
O       1.98274      9.63985      0.62927         0.000025      0.354544     -1.603385
O       1.97272      9.57749     13.60540        -0.009150      0.316484      0.026772
O      13.45275      9.83526      0.57722         0.018821     -0.114016      0.469292
O      13.54482      9.68245     13.71967        -0.294649      0.470667      0.788766
O       1.96059      9.64541      4.71173        -0.188269     -0.329989      1.338198
O      13.42076      9.71902      4.75977         0.151912      0.122055      1.264386
O       1.88800      9.61707      9.31517         0.032478      0.109516      0.491366
O      13.47029      9.77405      9.18743        -0.247942      0.217521     -0.021770
O       5.57872      2.06379      0.48195         0.401156     -0.285842     -0.053701
O       5.88331      1.93223     13.59291        -0.211496      0.401954      1.097745
O       5.70631     13.40495      0.54347         0.090952      0.219241      0.711542
O       5.84015     13.44567     13.60045        -0.123876     -0.116946      0.370137
O       5.65506      2.03041      4.94965         0.318771     -0.038562      0.227123
O       5.78950     13.62027      4.95894         0.177108     -0.098016      0.596389
O       5.82133      2.03747      9.32591        -0.079155     -0.068604      0.185520
O       5.69987     13.54391      9.18608         0.059496     -0.101294      0.711151
O       5.62851      5.69720      0.60034         0.214357      0.517588      0.745678
O       5.81861      5.88788     13.64746        -0.172871      0.047676      1.100742
O       5.73757      5.82996      4.84922         0.256242      0.295040      0.384022
O       5.71577      5.88409      9.15090         0.098022      0.067830      1.023352
O       5.65618      9.79324      0.47616         0.300070     -0.286633      0.723441
O       5.96192      9.74049     13.65104        -0.352668     -0.573220      2.092280
O       5.80360      9.77783      4.89642         0.039234     -0.615374     -0.023574
O       5.86207      9.71924      9.11233        -0.133348     -0.587434      0.678031
O       9.70278      2.03792      0.47193        -0.232859     -0.074867      0.867948
O       9.61048      1.96850     13.62615        -0.182687      0.248786      1.138489
O       9.64154     13.55613      0.60009        -0.253853      0.414271      0.640733
O       9.66024     13.37591     13.71855        -0.082809      0.370225     -1.352491
O       9.74532      2.05921      4.94667        -0.599994      0.032176     -0.300324
O       9.56210     13.61374      4.88927        -0.242503      0.021580      0.467668
O       9.59052      2.07343      9.28726        -0.190681     -0.221087      0.586696
O       9.52892     13.53696      9.29854         0.469835      0.109808      0.562531
O       9.69052      5.85663      0.52922        -0.229488     -0.317814      1.012098
O       9.58251      5.93003     13.63483        -0.303785     -0.049954     -0.055403
O       9.54769      5.90548      4.91460        -0.027565      0.112641      0.010550
O       9.70169      5.92663      9.32491         0.081600     -0.234184     -1.271533
O       9.72607      9.66549      0.61840        -0.254445      0.083554      0.095106
O       9.50415      9.71502     13.72168         0.193461     -0.266985      1.040715
O       9.41841      9.69654      4.75844         0.152407      0.123509     -0.380114
O       9.67520      9.83001      9.22062        -0.134683     -0.381023      1.355869
O       3.81564      1.90776      2.71541         0.227831      0.341750      0.097698
O       3.81506      1.92914     15.56734        -0.220842     -0.458628      0.397537
O       3.79986     13.54006      2.86931         0.915871     -0.088647     -0.488697
O       3.90180     13.56605     15.67671        -1.709274     -0.197758      0.303225
O       0.02541      2.00166      2.70388        -0.464084     -0.412780     -0.072344
O       0.02362      1.89554     15.72049         0.002935      0.236908     -0.017208
O      15.33089     13.74161      2.86514         0.452230     -0.207162     -0.257200
O      15.35773     13.66527     15.82575        -0.019791     -0.202692     -0.146638
O       3.81772      2.02821      7.11928        -0.486004     -0.353616      0.423904
O       3.83250     13.42805      7.09484        -0.316991      0.392869     -0.063200
O      15.29925      2.21346      7.08726         0.935850     -0.257223      0.350267
O      15.25365     13.65325      7.08760         1.019993      0.093165      0.161076
O       3.88707      2.01119     11.58072         0.164622     -0.142870     -0.610064
O       3.97104     13.49584     11.51447        -1.602969     -0.518247      0.113103
O      15.35116      2.01673     11.45506        -0.327729      0.313219      0.064743
O      15.33994     13.64663     11.35628         0.575258     -0.353940      0.485794
O       3.81605      5.80933      2.72456        -0.172757      0.598891      0.456897
O       3.76937      5.90713     15.70196         0.958847     -0.301274      0.170054
O      15.35433      5.90883      2.67911         0.029723      0.146851      0.310415
O      15.33766      6.03809     15.69161         0.784081     -0.682479      0.159987
O       3.76873      5.80871      6.89617         0.536370      0.366271      0.636391
O      15.30463      5.99638      7.13636         0.345128     -0.091666     -0.097755
O       3.90364      5.80592     11.43813         0.311025     -0.419639      0.305800
O       0.04573      5.69358     11.38814         0.335311     -0.123052      0.021784
O       3.89594      9.65612      2.73816        -0.489849      0.103812      0.020238
O       3.88546      9.66218     15.72100         0.226868     -0.221261      0.394876
O      15.34715      9.87141      2.79115         0.111144     -0.049063     -0.479927
O       0.03582      9.61417     15.83888         0.252123      0.209502      0.150647
O       3.79416      9.56245      6.95219        -0.269934      0.507947     -0.033842
O      15.30870      9.81190      7.00060         0.208643      0.259103     -0.343639
O       3.91368      9.62560     11.30124        -0.197299      0.015534      0.461477
O      15.34858      9.92889     11.50018         1.180716     -0.614724     -0.520291
O       7.60928      2.13668      2.61296         0.291254     -0.429011      0.277155
O       7.68308      2.08075     15.90617        -0.334749      0.128599      0.001236
O       7.63323     13.59424      2.76229         0.165582     -0.608989     -0.017448
O       7.65748     13.39012     15.78424         0.429483      0.402223      0.402957
O       7.63055      2.06886      7.06873         0.990754      0.283624      0.204622
O       7.66878     13.46540      7.14893         0.044297      0.791178     -0.361277
O       7.72037      1.90942     11.56698         0.127164      0.450057     -0.496869
O       7.68236     13.45012     11.38932        -0.090118      0.394504      0.423333
O       7.63750      5.91679      2.51399         0.770200     -0.226209      0.848051
O       7.66866      5.86670     15.84634        -0.416900     -0.171793      0.226572
O       7.66092      5.83603      6.97561        -0.017135      0.440717      0.570332
O       7.77346      5.94748     11.30072        -1.030806     -0.020165      0.459409
O       7.66160      9.74150      2.56511        -0.017806     -0.264277      0.254519
O       7.72542      9.63077     16.06773        -0.651600      0.258659     -0.347752
O       7.69713      9.76765      7.01148        -0.678160     -0.340737      0.063863
O       7.74265      9.57209     11.50753        -0.241419      0.252073     -0.722420
O      11.45013      1.93706      2.72644         1.017747      0.883867     -0.226068
O      11.54001      2.09003     15.63570        -0.725936     -0.091375      0.630346
O      11.55123     13.67274      2.82653        -0.498183      0.197167     -0.472459
O      11.50372     13.57490     15.88596        -0.359218      0.217365     -0.271323
O      11.52267      2.09342      7.15744        -0.321249     -0.352213      0.307046
O      11.39411     13.65317      7.06863         1.250038      0.209972      0.394465
O      11.49335      1.94315     11.37983        -0.074075      0.285123      0.433134
O      11.50450     13.54555     11.46928         0.283489     -0.028168      0.387650
O      11.56131      5.93068      2.71423        -0.344059     -0.338084     -0.209749
O      11.58578      5.94453     15.55451        -1.568693     -0.085691      0.913798
O      11.56915      6.00809      6.97883        -1.129840     -0.030187      0.347231
O      11.58706      5.95664     11.51350        -0.716979      0.072693      0.161341
O      11.54838      9.72281      2.81709        -0.229131      0.236123     -0.419843
O      11.53316      9.76248     15.90298        -0.144615     -0.330905     -0.238402
O      11.47789      9.82060      6.91874         0.194355     -0.397808      0.169822
O      11.59988      9.69604     11.49369        -0.717807      0.263645     -0.235533
O       1.94357      3.90686      2.62020         0.190849     -0.702688      0.604179
O       1.96384      3.87030     15.59023        -0.323177     -0.392022     -0.024628
O       1.92817      0.08288      2.83474        -0.471445      0.227315     -0.451054
O       1.90194     15.33044     15.78994        -0.070621      0.358386     -0.398514
O      13.44043      4.00227      2.75550        -0.361402     -0.373088     -0.335163
O      13.38623      4.00902     15.80284         0.642425     -0.110185     -0.069604
O      13.45619      0.22190      2.66060         0.152028      0.504602      0.566045
O      13.45082      0.26530     15.65744         0.082124     -1.474821      0.288955
O       1.94015      3.89513      7.13207        -0.389485      0.239033      0.140404
O       1.95303      0.07246      7.06993        -0.257013     -0.368590      0.354546
O      13.38653      4.04763      6.90736        -0.051419      0.291537      0.592813
O      13.51397      0.20363      7.10841        -0.833558     -0.060801      0.554007
O       1.91825      3.76615     11.51618         0.094987      0.940202     -0.140950
O       1.92964     15.29134     11.39609         0.363685      0.222027      0.430680
O      13.37637      4.05369     11.38133         0.447834     -1.282190      0.416509
O      13.38399     15.51639     11.39400         0.249563     -0.284164      0.551466
O       1.84558      7.77322      2.53805         0.389118     -1.098291      0.856040
O       1.95497      7.69579     15.74263        -0.315707      0.349851      0.285645
O      13.50411      7.79753      2.65956        -0.239456      0.529753     -0.137506
O      13.51427      7.86429     15.91386        -0.478418      0.074817     -0.293460
O       1.81215      7.75285      7.11311         0.470124     -0.343039     -0.554306
O      13.36124      7.89385      7.08519         0.552036      0.297557     -0.384041
O       2.00519      7.66177     11.52530        -0.336142      0.955224     -0.626819
O      13.56837      7.90401     11.44517        -0.105348     -0.025583     -0.265239
O       1.91774     11.59653      2.78527        -0.120741     -0.007362     -0.225333
O       1.93946     11.49835     15.83878         0.097647      1.054352     -0.141763
O      13.43573     11.74470      2.72080        -0.026112      0.167161      0.079379
O      13.40632     11.72505     15.82568         0.367326     -0.432754      0.332874
O       1.80066     11.56205      6.91181         0.554272     -0.764357      0.401500
O      13.34639     11.67314      7.01444         0.183562      0.599504      0.009139
O       2.06157     11.53468     11.57454        -0.533117     -0.703412     -0.477775
O      13.43590     11.62973     11.42090        -0.167221      0.964348      0.290447
O       5.72507      3.91148      2.69462        -0.195596     -0.204404      0.558805
O       5.60778      3.88795     15.76743         0.694119      0.754059      0.014977
O       5.85440     15.41699      2.63673        -0.622311      0.448640     -0.007224
O       5.90348     15.43539     15.75260        -0.298224     -0.038869      0.378333
O       5.78089      3.92361      7.10220        -0.351188      0.672592      0.216821
O       5.84302      0.12193      7.14106        -0.479010     -0.381306      0.022878
O       5.96587      3.98177     11.44472        -0.670394     -0.241899      0.044625
O       5.77950     15.41745     11.43834         0.189435      0.306503     -0.067329
O       5.74357      7.80167      2.65669         0.008066     -0.241554      0.396646
O       5.80496      7.75867     15.94553        -0.106397      0.102818     -0.148752
O       5.76174      7.75854      7.01593         0.123045      0.270242      0.032918
O       5.75473      7.75547     11.42265         0.302359      0.098420     -0.065059
O       5.75366     11.58678      2.83500         0.004595      0.445905     -0.450205
O       5.67130     11.62699     15.86938         0.830961     -1.453233     -0.154567
O       5.79417     11.59005      7.05960        -0.513948      0.070861     -0.159214
O       5.84701     11.51236     11.29849        -0.209729      0.345554      0.297976
O       9.57880      3.92621      2.73093         0.172767      0.345146      0.079299
O       9.58099      3.96272     15.80852         0.179215     -0.059746     -0.025246
O       9.44053      0.17331      2.71346         0.338497     -0.419722      0.215442
O       9.50454     15.47404     15.77932         0.139739     -0.713981      0.155377
O       9.65479      4.05442      7.09384        -0.075764     -0.605254      0.341490
O       9.52536      0.21140      7.08544         0.157767     -1.162761      0.230165
O       9.69697      3.97821     11.50062        -0.669738     -0.909076     -0.355243
O       9.58811     15.38623     11.52870         0.102963      0.753115     -0.011563
O       9.62853      7.75243      2.61409        -0.423360      0.232525      0.576305
O       9.67523      7.73118     15.92633        -0.542090      0.415018     -0.118544
O       9.54416      7.91831      6.98842         0.178861     -1.059986      0.330474
O       9.71516      7.82066     11.33167        -0.210272     -0.016611      0.610254
O       9.59127     11.68522      2.63563         0.145511     -0.329986      0.623246
O       9.58513     11.55574     15.92370         0.002344      0.489719     -0.041630
O       9.61439     11.65385      6.99870        -0.171309      0.461692     -0.012986
O       9.60437     11.60230     11.48960         0.291109     -0.397758      0.088735
