  # total energy = -7882.22259752 
CRSYTAL
PRIMVEC
    15.3600000000000000    0.0000000000000000    0.0000000000000000
     0.0000000000000000   15.3600000000000000    0.0000000000000000
     0.2400000000000000    0.0000000000000000    17.440000000000000
PRESSURE
1.39628 1.73242 -0.653291 0.186985 -0.915091 0.085202
PRIMCOORD
320 1
Pb       3.92735      3.83364      4.31720         0.303034     -0.311285      0.140275
Pb       4.05612      3.79482     17.39109         0.485141      0.016108      0.403738
Pb       3.91813     15.32825      4.37063         0.195529     -0.345410     -0.382987
Pb       3.68041      0.10947      0.04888         0.449571     -0.565898     -0.007768
Pb      15.41472      3.73054      4.27132        -0.069130      1.080266      0.807208
Pb       0.26615      3.79687     17.37603        -0.359484      0.001222     -0.293849
Pb      15.35163      0.11319      4.33823         0.255831     -0.811534     -0.070662
Pb      15.36392     15.24663     17.41433         0.917971      0.410043      0.193950
Pb       3.99094      3.88994      8.66246        -0.237425     -0.014223     -0.181763
Pb       3.85097     15.24938      8.66265         0.626111      0.662157      0.443517
Pb       0.29193      3.82251      8.71420        -0.257378      0.387822      0.533838
Pb      15.33418      0.02129      8.74293         0.220311      0.053303      0.266891
Pb       3.96574      3.95531     12.97251         0.011482     -0.607551      0.179175
Pb       3.98485     15.28799     13.22381        -0.048856      0.293994     -0.558569
Pb       0.20515      3.85529     12.94771        -0.263843     -0.552109      0.297100
Pb      15.48024     15.35337     13.16787         0.405688      0.607005     -0.575381
Pb       3.83330      7.58429      4.29660         0.102304      0.283599      0.009806
Pb       3.92862      7.48583     17.34659         0.792160      0.435528      0.431815
Pb      15.40877      7.55557      4.24856        -0.001824      0.231168      0.553687
Pb      15.52251      7.65735     17.27835         0.381411      0.153603      0.258757
Pb       3.96552      7.64069      8.65227        -0.324044     -0.317651     -0.141525
Pb      15.47715      7.67655      8.70634         0.182770     -0.454131      0.001410
Pb       4.12760      7.60840     12.99513        -0.340784      0.124117      0.443134
Pb      15.38545      7.56986     13.06461         0.109487      0.217170     -0.286764
Pb       3.86911     11.41181      4.26563        -0.224294      0.649799     -0.151829
Pb       3.87716     11.53001      0.06477        -0.445155      0.176138     -0.185979
Pb       0.13617     11.58773      4.24891        -0.222175     -0.408492     -0.136192
Pb      15.56808     11.51239     17.36511        -0.270543     -0.319653      0.236138
Pb       3.97031     11.51961      8.67902        -0.048027     -0.154973      0.020459
Pb      15.41509     11.38822      8.69806         0.067131      0.257462      0.073877
Pb       3.92079     11.51846     13.08620         0.321999     -0.014352     -0.494315
Pb      15.44351     11.57863     13.17809        -0.095563     -0.269444     -0.487346
Pb       7.69159      3.81949      4.32997         0.007458      0.127045      0.488984
Pb       7.99838      3.85716     17.40433        -0.408408     -0.092240     -0.047399
Pb       7.80354      0.10602      4.29345        -0.809754     -1.030781      0.201660
Pb       7.75342      0.13221      0.00775        -0.619900     -0.689594     -0.675178
Pb       7.77612      3.86550      8.69671         0.245293      0.039705     -0.448235
Pb       7.74934     15.27941      8.64155         0.292461     -0.100611     -0.126240
Pb       7.78122      3.70524     13.04193        -0.238059      0.583975      0.174455
Pb       7.79332     15.34522     12.97742        -0.221797     -0.495952      0.817694
Pb       7.71234      7.71969      4.37332         0.546980     -0.361233      0.092026
Pb       7.94307      7.63436     17.40204        -0.645356     -0.614995      0.385859
Pb       7.79974      7.73026      8.63496         0.192549     -0.618040      0.235692
Pb       7.83326      7.68343     12.94095        -0.256315      0.275119      0.864607
Pb       7.59577     11.52502      4.26861         0.819368      0.228043      0.257366
Pb       7.70095     11.48918      0.03988        -0.420058      0.407190     -0.561515
Pb       7.81698     11.47818      8.63226         0.039961      0.621797      0.462964
Pb       7.78315     11.41646     13.06919        -0.015052      0.408710      0.127328
Pb      11.51807      3.69534      4.34019         0.126048      0.686150      0.089737
Pb      11.76258      3.70450     17.36763        -0.151392      0.729358      0.641122
Pb      11.62526     15.26918      4.20885        -0.320515      0.632661      0.519740
Pb      11.64094     15.27234     17.34630         0.446514      0.311873      0.007830
Pb      11.56606      3.79748      8.71858         0.151204     -0.128202     -0.182512
Pb      11.71165     15.29235      8.68551        -0.483481     -0.060090     -0.004552
Pb      11.62132      3.84357     12.95519         0.208024     -0.405002      0.705688
Pb      11.66001      0.04000     12.98069         0.085516      0.177979      0.163914
Pb      11.65033      7.71293      4.31260        -0.669790     -0.240835      0.593324
Pb      11.83612      7.65395     17.43227        -0.177835      0.036392      0.256817
Pb      11.77760      7.79291      8.72438        -0.574405     -0.637275      0.121353
Pb      11.47057      7.81031     13.00776         0.632656     -0.136542      0.496765
Pb      11.53346     11.55528      4.37560        -0.048615     -1.052233     -0.334771
Pb      11.47818     11.48259      0.01704         0.611523     -0.780339     -0.338490
Pb      11.68423     11.44617      8.59886        -0.471695      0.615519      0.521790
Pb      11.61606     11.51374     13.02474         0.313454     -0.370989      0.287547
Ti       1.94946      1.90527      2.34200         1.210282     -0.563502     -1.399428
Ti       2.12145      1.90319     15.43478        -0.657225     -0.368092     -1.405977
Ti       1.87288     13.50015      2.29893         1.174328     -0.750633     -0.952238
Ti       2.16517     13.38349     15.43729        -0.381625      0.774898      0.370732
Ti      13.57112      2.00937      2.24190        -1.937211     -1.349844     -0.599989
Ti      13.62323      1.93134     15.45975         0.797362     -0.364220     -0.004372
Ti      13.36924     13.43199      2.30696         1.469417     -0.292016     -0.851455
Ti      13.61896     13.41645     15.41658         0.232271     -0.265504     -0.111185
Ti       2.04273      1.81921      6.77867        -0.000736      1.725677      0.516853
Ti       1.94486     13.43406      6.71661         0.520647     -0.208544     -0.667664
Ti      13.52940      1.97580      6.66739         0.002270      0.273268      1.474771
Ti      13.68208     13.40058      6.66419        -1.896684      0.366993      0.758511
Ti       2.22332      1.90274     11.05170        -2.042699      0.368051      0.360054
Ti       2.14519     13.47397     11.04867        -1.014575      0.045827      1.106846
Ti      13.56141      1.90174     11.03129         0.473092      0.921532     -0.276673
Ti      13.60613     13.45934     11.14583         0.548465     -0.499720     -1.128180
Ti       1.96381      5.69994      2.29685         0.303937      0.623389      0.365344
Ti       2.10819      5.64751     15.36644        -0.074599      1.248908     -1.343470
Ti      13.50974      5.73617      2.27258        -0.806529     -0.145484     -0.020512
Ti      13.54233      5.72333     15.37278         0.626969     -0.545767      0.920475
Ti       2.02822      5.77033      6.62744        -0.406602     -0.142692     -0.022246
Ti      13.52273      5.77353      6.74896        -0.461902     -0.648462     -1.599225
Ti       2.08229      5.82801     11.06533        -0.794767     -1.811017     -1.752086
Ti      13.43175      5.74592     11.11704         2.198838      0.042463     -0.904268
Ti       1.96147      9.55184      2.22892        -0.515250      0.818377      0.168321
Ti       2.13809      9.61116     15.30608        -0.677733     -0.529179      2.559024
Ti      13.48778      9.54941      2.41317        -0.949034      0.836935     -1.756834
Ti      13.57193      9.53272     15.37836         0.507894      0.933405     -1.127536
Ti       2.02240      9.63837      6.68222        -0.074214     -0.753884      0.354981
Ti      13.50789      9.55869      6.70858         0.541565      0.227877     -1.727629
Ti       2.04930      9.61689     10.97587        -0.345710      0.085986      1.171172
Ti      13.65428      9.62627     11.08742        -0.889518     -0.237151     -0.554256
Ti       5.80575      1.84656      2.35834        -1.054955      0.147383     -0.254979
Ti       5.97078      1.89229     15.43547         0.560097     -0.571451     -0.218633
Ti       5.77545     13.38290      2.27468        -0.758616      1.281366      0.450417
Ti       5.96501     13.34801     15.45577         1.138258      1.282988      0.242317
Ti       5.85594      1.91174      6.73741         0.407405     -0.270804     -0.798260
Ti       5.76171     13.42948      6.72249         1.226797      0.231470     -1.813745
Ti       5.91003      1.91473     10.94351        -0.152935      0.285957     -0.311215
Ti       5.97909     13.40448     11.07896        -0.251620      0.155556     -0.495016
Ti       5.82548      5.72555      2.42908         0.301080      0.170062     -1.424730
Ti       5.94822      5.65037     15.30994        -0.032418      1.285799     -0.151627
Ti       5.90831      5.75605      6.58930        -0.252455     -0.694327     -0.606858
Ti       5.96801      5.78328     11.03139        -0.384132     -0.782430     -0.413004
Ti       5.80982      9.50953      2.25466        -0.358408     -0.258561      0.487830
Ti       5.91040      9.52416     15.47599         0.229337      0.024851     -1.192901
Ti       5.80421      9.55956      6.67171        -0.573061      0.530376      0.577420
Ti       5.83641      9.60277     11.03247         0.728150      0.259191      0.754838
Ti       9.68514      1.84888      2.32420         0.164979      1.036387     -1.062494
Ti       9.88382      1.90560     15.34912        -1.537564      0.111975     -0.120384
Ti       9.62493     13.38786      2.19231        -1.680712     -0.557103      2.002477
Ti       9.81443     13.29204     15.39973        -1.312569      0.884591     -1.098357
Ti       9.74374      1.81229      6.70526        -0.633007      0.426816      0.406190
Ti       9.73881     13.33745      6.60080        -0.420874      0.600931      1.638876
Ti       9.63974      1.90193     11.08282         1.789386     -0.083298     -1.496632
Ti       9.81295     13.43866     11.11640        -1.145433     -0.872618     -1.454086
Ti       9.68314      5.69220      2.44867        -0.056644      0.909568      0.435088
Ti       9.77229      5.80156     15.38196        -0.090395     -1.423958     -0.567162
Ti       9.75327      5.73930      6.60622        -0.343821      0.559631     -0.561942
Ti       9.71228      5.70563     11.06495        -0.954440      1.306106      0.466790
Ti       9.65854      9.50411      2.31628         0.308168      0.906634      1.984459
Ti       9.71184      9.50943     15.45889         1.502165      0.488194     -0.655489
Ti       9.63180      9.55294      6.74176         1.090072     -0.947382     -1.762381
Ti       9.70980      9.65317     10.99502        -0.190822     -0.487043     -1.224966
O       1.91655      1.94674      0.54747         0.216938     -0.087526      0.577777
O       2.07936      1.93395     13.61131         0.433082     -0.110130      1.643698
O       1.89421     13.48310      0.49899         0.248455     -0.144037      0.381466
O       2.14611     13.44286     13.62309         0.099550     -0.254686      0.891231
O      13.50010      1.82280      0.46925        -0.157599      0.570119      0.870421
O      13.57399      1.96049     13.73215        -0.107045     -0.401300     -0.893351
O      13.30723     13.53189      0.50427         0.182987     -0.508566      0.904639
O      13.61414     13.44127     13.65378        -0.005226      0.072260     -0.520520
O       1.84833      1.79802      5.05341         0.199369      0.383783     -1.202674
O       1.87491     13.50845      4.95933        -0.019681     -0.242307      0.185803
O      13.60329      2.00171      4.89901        -0.163137     -0.230228     -0.179459
O      13.56587     13.46100      4.93286         0.086575      0.001891     -0.774751
O       2.12365      2.00365      9.27022         0.068633     -0.528863      0.105605
O       2.03123     13.59847      9.31819         0.081902     -0.114880     -0.283671
O      13.43799      1.99855      9.25478         0.565467     -0.333747      0.388449
O      13.68784     13.46846      9.35012        -0.262119     -0.062376      0.276009
O       1.94598      5.85652      0.53462        -0.087107     -0.553842      0.102215
O       2.09077      5.61089     13.56163         0.243355      0.460635      0.396619
O      13.48781      5.70620      0.51605         0.128468      0.273492     -0.037974
O      13.55979      5.66466     13.64632        -0.112039      0.327196     -0.615727
O       1.93109      5.77754      4.78257         0.313539     -0.151275      1.047235
O      13.56068      5.79044      4.92199         0.059938     -0.106170      1.025734
O       1.99127      5.76641      9.21125         0.244072      0.091541      1.494048
O      13.50450      5.80590      9.34265        -0.315558     -0.223477      0.313298
O       1.82427      9.54853      0.48095         0.234737      0.214969      0.332286
O       1.95722      9.67619     13.60929         0.465334      0.071279     -0.777675
O      13.25877      9.58117      0.56702         0.418260     -0.176575      1.162644
O      13.65701      9.59580     13.56774        -0.131982     -0.045593      0.601216
O       2.10570      9.66414      4.94155        -0.154834      0.014897     -0.626584
O      13.50226      9.61591      4.90790        -0.004752     -0.270591      0.672380
O       2.01537      9.50363      9.23214         0.010175      0.165863      0.248371
O      13.54491      9.52029      9.22363         0.303413      0.660324      0.692224
O       5.66325      2.09305      0.62598         0.239396     -0.611160     -0.463738
O       5.98893      1.99152     13.66758        -0.116207     -0.296670      0.146766
O       5.74211     13.37194      0.51185         0.059616     -0.281208     -0.017794
O       6.11610     13.43448     13.68351        -0.796254     -0.094222      0.026790
O       5.75874      1.83294      4.95411         0.251631     -0.208802     -0.526901
O       5.80733     13.49205      4.91665        -0.122363     -0.242322      1.012215
O       6.07585      2.03766      9.14882        -0.642900     -0.453161      0.886062
O       5.92969     13.38894      9.29294        -0.080386      0.078356      0.269142
O       5.79581      5.80855      0.61782         0.354516     -0.325548      0.786500
O       5.92231      5.81328     13.50460        -0.198252     -0.513141      0.991275
O       5.71850      5.78186      4.77809         0.244284     -0.240861      1.084593
O       5.99079      5.73062      9.24387         0.033183      0.013992      0.071951
O       5.76967      9.55931      0.50658         0.186968      0.031296     -0.325684
O       6.02780      9.54771     13.67206        -0.689541      0.070686      0.591166
O       5.62723      9.71076      4.96083         0.508588     -0.558307     -0.759605
O       5.87275      9.55718      9.32623        -0.588571      0.180246     -1.643879
O       9.71560      2.02193      0.53709        -0.516448     -0.551080      0.667792
O       9.84809      2.10257     13.57211        -0.265464     -0.862591     -0.175504
O       9.54747     13.33908      0.46132         0.352585      0.162491     -0.584803
O       9.69575     13.27109     13.56608         0.582968      0.346293      1.755224
O       9.80780      1.71760      4.95358        -0.123256      0.275375     -0.849525
O       9.70866     13.24469      4.86540         0.002711      0.602376     -0.291854
O       9.75135      1.89769      9.32549        -0.499979      0.109212     -0.332804
O       9.78096     13.28769      9.30839        -0.079997      0.341785      1.273382
O       9.52227      5.78417      0.69845        -0.094602     -0.183663     -0.480514
O       9.73488      5.76041     13.60668         0.079610      0.042386      0.727651
O       9.75342      5.80317      4.82598         0.018370     -0.202098      0.138355
O       9.47859      5.75147      9.36221         0.327437      0.280222     -0.850868
O       9.77554      9.52381      0.60083        -0.339349     -0.062601     -2.043095
O       9.81006      9.47936     13.69527        -0.267172      0.499466     -0.083380
O       9.75357      9.47965      4.94040        -0.467476      0.684105      1.030610
O       9.66282      9.64643      9.17317         0.357037     -0.141056      0.763890
O       3.80996      1.91967      2.79179         0.186036      0.019841      0.098232
O       4.05441      1.91885     15.91562         0.074159      0.544870     -0.469976
O       3.82977     13.38423      2.73513         0.959897      0.049836     -0.145991
O       4.05269     13.30518     15.83540        -0.126763      0.195312     -0.302825
O       0.05404      1.92167      2.69688        -0.145973     -0.071824      0.191114
O      15.51573      1.80521     15.87566         1.326599      0.690074     -0.241512
O      15.39020     13.44880      2.65466        -1.189105      0.160347      0.242964
O      15.57493     13.44645     15.89836        -0.111988      0.106962     -0.698453
O       4.03036      1.83970      7.12113        -1.933566     -0.169889      0.251329
O       3.83980     13.54154      7.10922         0.500635     -0.440907      0.066174
O      15.43870      2.05855      7.19295        -0.270467     -0.434899     -0.504820
O       0.13235     13.44100      7.22584        -0.314418     -0.372984     -0.166568
O       4.02662      2.06103     11.46199         0.904574     -0.906184     -0.326930
O       4.02652     13.50397     11.49132         0.046278     -0.314765      0.073305
O       0.16609      1.99079     11.45491        -0.316883     -0.581784     -0.356420
O      15.45884     13.47478     11.58859         1.059904     -0.110641     -0.143500
O       3.96543      5.72629      2.67721        -2.017653     -0.289776      0.293243
O       4.04164      5.57915     15.69593         0.487869      0.424863      0.327866
O       0.05463      5.70589      2.76265         0.259239      0.157308     -0.523865
O       0.27760      5.83634     15.72751        -0.934462     -0.503534      0.171517
O       3.87475      5.75911      7.07480         0.719395      0.299252     -0.216633
O      15.38941      5.68852      7.10325         0.798176     -0.049449     -0.082259
O       4.04320      5.77840     11.34476        -0.637663     -0.213765      0.323930
O      15.42427      5.68429     11.49004         0.395022      0.443377     -0.114996
O       3.85995      9.53605      2.58863         0.681044      0.826803      0.193423
O       3.99535      9.83030     15.78030         0.312496     -0.578924     -0.451736
O      15.32296      9.61749      2.74837         1.286535     -0.205163     -0.184913
O      15.45329      9.53885     15.85267         1.286311      0.120448     -0.316859
O       3.89498      9.57167      7.23852         0.928447     -0.092674     -0.250893
O       0.14757      9.56349      7.10301        -0.602263      0.387217      0.010708
O       3.93374      9.60576     11.56085        -0.172569     -0.078085     -0.410974
O      15.51079      9.72494     11.54749         0.624765     -0.405206     -0.746077
O       7.67556      1.70973      2.58222         0.982132      0.670739      0.418763
O       7.92660      1.79546     15.83212        -0.028975      0.770989      0.006472
O       7.70271     13.53614      2.74473         0.681182     -0.340019     -0.322211
O       7.90574     13.40599     15.90177         0.642938     -0.003958     -0.026949
O       7.76108      1.92244      6.97855         1.078660     -0.182386      0.327330
O       7.78586     13.37617      7.05075         0.394662     -0.077021     -0.039620
O       7.81057      1.92186     11.41173        -0.251087     -0.061480      0.327120
O       7.84477     13.33262     11.60436         0.134136      0.555194     -0.810766
O       7.74119      5.81628      2.93442         0.032999     -0.334462     -0.393775
O       7.82458      5.91846     15.82539         0.919863     -0.818769     -0.209189
O       7.77348      5.75422      6.93836        -0.736881     -0.255726      0.090692
O       7.74848      5.82819     11.59340         1.403790     -0.404096     -0.675968
O       7.72994      9.43867      2.78074        -0.724472      0.610657     -0.545620
O       7.89747      9.54331     15.79447        -0.576697     -0.292015      0.492029
O       7.74110      9.66295      7.09674        -0.832456     -0.172455     -0.420704
O       7.75221      9.58646     11.22944         0.877360      0.168040      0.836340
O      11.58779      2.00189      2.63698         0.249994     -0.423856      0.371494
O      11.72398      1.95860     15.79056        -0.191954     -0.440722      0.137034
O      11.48020     13.49111      2.63850         0.702658     -0.648141      0.190005
O      11.74229     13.47118     15.75880        -1.084695     -0.431281      0.125507
O      11.62600      1.84511      7.13849         0.227809      0.030737     -0.210761
O      11.64879     13.43012      7.06760         0.474897     -0.232121     -0.199925
O      11.63443      1.93528     11.29020        -0.261254     -0.334797      1.173441
O      11.66344     13.49342     11.48904         0.183274     -0.079994      0.268638
O      11.55951      5.75710      2.73439         0.494083     -0.588257     -0.209493
O      11.73031      5.65454     15.95379        -0.811611      0.239561     -0.818228
O      11.57168      5.84087      7.12279         0.570051      0.512906      0.222021
O      11.61855      5.78169     11.52313        -0.720327      0.305472     -0.444908
O      11.54066      9.64793      2.83966         0.675330      0.049482     -0.130496
O      11.75481      9.58361     15.77600        -0.936973     -0.195626      0.376431
O      11.59656      9.47504      7.03522         0.589996      0.474591      0.401020
O      11.65479      9.50369     11.48644        -0.004524      0.878909     -0.542582
O       1.96277      3.83619      2.57532        -0.096083     -0.096464      0.509673
O       2.15836      3.82812     15.80032        -0.585527     -0.734363      0.388310
O       2.01779     15.32802      2.70410        -0.483900      1.288711      0.279259
O       2.21927      0.05633     15.86353        -0.120833     -1.097846     -0.564256
O      13.45362      3.84453      2.60989         0.594162     -0.507161      0.362153
O      13.68600      3.80563     15.89050         0.260810      0.533790     -0.100635
O      13.43964      0.00485      2.72062         0.315174      0.109287     -0.014640
O      13.66577     15.32999     15.80463        -0.616764     -0.065231     -0.027578
O       2.11837      3.84211      7.16161        -0.322129     -0.085755     -0.494988
O       1.95001      0.00456      7.12996        -0.071281     -0.353207      0.341401
O      13.23684      3.86329      7.07218         1.127184     -0.337182     -0.306947
O      13.64488     15.34422      7.09183        -0.191104      0.274438     -0.238381
O       2.10895      3.83519     11.42981         0.064258      0.216246     -0.009901
O       2.10923      0.02938     11.68028         0.176042     -0.175651     -0.891081
O      13.49758      3.80532     11.58152         0.082426      0.385319     -0.822732
O      13.58012      0.00416     11.43333        -0.172189      0.551636      0.449318
O       2.02227      7.73382      2.66322        -0.549213     -1.273287      0.178777
O       2.24975      7.65674     15.81882        -0.459799      0.485851     -0.953954
O      13.46797      7.59720      2.64766         0.224580      0.923830      0.197450
O      13.59911      7.60451     15.69519         0.027428      0.242570      0.361546
O       2.01116      7.66714      7.04277        -0.069764     -0.380918     -0.108315
O      13.59483      7.71231      7.15137        -0.142549     -0.606602     -0.062977
O       1.99699      7.58644     11.41347         0.073942      2.137185      0.295004
O      13.62474      7.77920     11.33658         0.154743     -1.624809      0.758740
O       1.99823     11.59537      2.71218        -0.522601     -1.531155     -0.020567
O       2.00413     11.55968     15.87567         0.235730     -0.908657     -0.682065
O      13.49503     11.51681      2.72469        -0.394367      0.902528     -0.061811
O      13.63319     11.50363     15.73117         0.099576      0.146489      0.371259
O       2.07904     11.50129      7.16295        -0.324190      0.808162     -0.069338
O      13.57737     11.49657      7.03406         0.111082     -0.000240      0.322991
O       2.11151     11.54097     11.26296         0.103883      0.055970      0.394889
O      13.53704     11.51960     11.42947        -0.077482      0.363807      0.267505
O       5.84040      3.74310      2.81246         0.134804      0.656301      0.231568
O       6.12359      3.83783     15.79522        -0.246105     -0.148907     -0.013373
O       5.72632     15.29121      2.74301        -0.153299      0.493200     -0.122683
O       5.97281      0.01644     15.84544        -0.315297     -0.376897      0.035173
O       5.73588      3.84471      6.85491         0.417184      0.413910      0.684245
O       5.88053     15.28946      7.17413        -0.019158      0.221078      0.044250
O       6.03116      3.78131     11.37272        -0.260638      0.689669      0.080149
O       5.95980      0.02466     11.45303        -0.059445     -0.091462     -0.170479
O       5.74006      7.62894      2.79999         0.391232      1.095169     -0.257146
O       5.82834      7.61125     15.73176        -0.036279      0.674540      0.189584
O       5.82047      7.62133      6.99820         0.047875      1.034885      0.185240
O       5.84744      7.67044     11.41421         0.115586      0.527835      0.002669
O       5.92695     11.51393      2.70302        -0.648187     -1.109539     -0.422385
O       6.09551     11.49746     15.75765        -0.268791     -0.585849      0.535043
O       5.71986     11.52926      7.02199         0.104412     -0.409124      0.519244
O       5.98204     11.53276     11.45175        -1.002383     -0.461013      0.246631
O       9.55263      3.75008      2.88471         0.155462      0.202215     -0.414907
O       9.75238      3.77933     15.81123         0.022063      0.995087     -0.027781
O       9.71334      0.00897      2.60379         0.019227     -0.855736      0.242981
O       9.80016     15.35103     15.80941         0.451870     -0.406475     -0.230956
O       9.72358      3.90303      6.94989         0.154620     -1.606182      0.504845
O       9.78251     15.33469      7.18671        -0.648275     -0.706025     -0.482451
O       9.68438      3.89346     11.28818        -0.028156     -1.020643      0.724066
O       9.66997     15.32628     11.43159         0.317267      0.255593      0.242062
O       9.75262      7.72817      2.80056        -0.404804     -1.469939     -0.190718
O       9.82982      7.60910     15.73048         0.374449      0.575376      0.725722
O       9.58129      7.64039      7.04863        -0.015302      0.711442      0.452075
O       9.68443      7.79989     11.49150         0.174371     -1.175171     -0.358682
O       9.56090     11.48262      2.66053         0.142308      0.795670     -0.118702
O       9.79050     11.42171     15.84131         0.287268      0.606904      0.078794
O       9.78606     11.45329      7.14930        -0.168558      0.670926     -0.564592
O       9.82896     11.47292     11.50956        -0.313727      0.057108     -0.187728
