  # total energy = -7880.63523697 
CRSYTAL
PRIMVEC
    15.3600000000000000    0.2300000000000000    0.0000000000000000
     0.0000000000000000   15.3600000000000000    0.0000000000000000
     0.0000000000000000    0.0000000000000000    17.440000000000000
PRESSURE
1.80242 2.04112 -1.82811 0.06057 0.402602 -1.65676
PRIMCOORD
320 1
Pb       3.82686      3.94293      4.28194        -0.169137     -0.154836      0.426139
Pb       3.82255      3.74318      0.08790        -0.353822     -0.033555     -0.471773
Pb       3.94231     15.39743      4.29461        -0.259623     -0.645516      0.316643
Pb       3.91532     15.36585      0.11918        -0.070035      0.536524     -0.488696
Pb       0.02183      3.91652      4.29653        -0.130759      0.473031      1.534972
Pb       0.02739      3.75132      0.03207         0.241082      0.046217      0.306954
Pb      15.35024     15.48149      4.38191        -0.332499     -0.334646      0.496102
Pb      15.33728      0.25555     17.39310         0.154866     -0.042684     -0.032943
Pb       3.80538      3.70294      8.54636         0.081102      0.436894      0.088824
Pb       3.87136      0.07945      8.53866        -0.107410     -0.583665      1.024290
Pb      15.29807      3.90904      8.53825         0.505053      0.358736      1.013895
Pb       0.00474     15.23601      8.63745         0.115605     -0.198406      0.387245
Pb       3.74585      3.71462     13.05818        -0.200595      0.810466      0.294570
Pb       3.77337     15.37152     13.05234         0.181877      0.281486      0.668323
Pb      15.30078      4.01754     12.95777         0.624800     -0.015908      0.424005
Pb      15.33892      0.23415     13.01212        -0.345957      0.044532      0.826596
Pb       3.78471      7.78200      4.38536        -0.321536     -0.296341      0.221979
Pb       3.79011      7.66220     17.33539         0.173395     -0.168700      0.946726
Pb      15.33025      8.06185      4.42807         0.410887     -0.220138     -0.068961
Pb      15.26893      7.99308     17.39849         0.230916      0.209283      0.602541
Pb       3.86807      7.67198      8.74390        -0.034453     -0.144472      0.145555
Pb       0.07203      7.54453      8.79684        -0.390429      0.418850      0.570462
Pb       3.64609      7.61351     13.09341         0.518116     -0.251867      0.205538
Pb      15.34479      7.87043     13.05664         0.055732      0.512999      0.116348
Pb       3.73766     11.54930      4.22687        -0.312176      0.526204      0.717850
Pb       3.71409     11.57770     17.34996         0.490978     -0.210969      0.905595
Pb      15.27786     11.75313      4.34633        -0.210226     -0.047659      0.130455
Pb      15.22113     11.76464      0.00102        -0.119191     -0.394046     -0.031545
Pb       3.99308     11.51201      8.68268        -0.393692      0.677659      0.606409
Pb       0.11087     11.44833      8.76177        -0.257673      0.543933      0.027842
Pb       3.71259     11.49963     13.03057         0.712011      0.163638      0.371469
Pb      15.34682     11.70262     13.06723        -0.329170     -0.126720     -0.025197
Pb       7.70051      4.00393      4.25346         0.001910     -0.107342      0.749681
Pb       7.70638      3.86990     17.36013         0.074643     -0.169793      0.087003
Pb       7.73805     15.39233      4.26753         0.270260     -0.157980     -0.003919
Pb       7.71594      0.18415     17.36251        -0.135431     -0.302855     -0.006128
Pb       7.51192      3.89431      8.59684         0.529604     -0.013282     -0.049990
Pb       7.56757     15.37935      8.56380         0.811873      0.028588      1.078603
Pb       7.54937      3.93584     13.00957         0.353325      0.058929      0.221603
Pb       7.63491      0.18315     13.03084        -0.148187     -0.067586      0.264131
Pb       7.72728      7.76995      4.30054         0.058593     -0.201049      0.670289
Pb       7.52921      7.81747     17.27488         0.256364     -0.477220      0.862205
Pb       7.65337      7.70380      8.76708         0.106817     -0.013655     -0.676953
Pb       7.68181      7.92320     13.09186         0.157950     -0.530311      0.156273
Pb       7.57377     11.54341      4.23377         0.792279      0.238124      1.364572
Pb       7.65376     11.55070     17.24545        -0.062457      0.306956      0.770082
Pb       7.69547     11.50772      8.72629        -0.173611      0.517083      0.159357
Pb       7.66563     11.81701     13.11784         0.345894     -0.592648     -0.073252
Pb      11.43058      4.02504      4.42949         0.262914      0.190469      0.117989
Pb      11.64672      4.14471      0.03327        -0.642462     -0.617867      0.089898
Pb      11.60162     15.47592      4.30324        -0.349483     -0.002284      0.072562
Pb      11.55186      0.28319     17.43961        -0.171764     -0.241210     -0.127233
Pb      11.48747      3.94765      8.63676        -0.015366      0.199778      0.185277
Pb      11.38966      0.17501      8.63368         0.314871      0.075377      0.999776
Pb      11.55502      4.19138     13.08057        -0.534578     -0.314082     -0.614187
Pb      11.46427      0.24287     12.90790         0.421443      0.138177      0.674880
Pb      11.45078      7.94352      4.39732        -0.030155     -0.812109      0.233439
Pb      11.45974      7.90977     17.32465         0.438351      0.186368      0.552368
Pb      11.54908      7.85766      8.73528        -0.251438     -0.989373      0.650838
Pb      11.59860      7.96226     12.97090        -0.561667     -0.368677      0.475680
Pb      11.48978     11.42850      4.36489         0.372312      1.109381      0.093564
Pb      11.42087     11.84368     17.19156         0.774950     -1.205126      1.331937
Pb      11.57351     11.64380      8.64962        -0.131973      0.271889      1.070801
Pb      11.44819     11.83529     12.93950        -0.401585     -0.370581      0.619636
Ti       1.84903      1.84177      2.52977         1.357896      0.725465     -1.758775
Ti       1.83910      1.97873     15.43345         0.826046     -0.474009     -1.722776
Ti       1.84316     13.42656      2.27149         0.225197     -0.751418      0.537083
Ti       1.94862     13.47466     15.42156        -0.994574      1.055687     -0.326204
Ti      13.52678      2.19045      2.44920        -0.443055     -0.951309     -0.964180
Ti      13.43627      2.17187     15.40475        -0.569646     -1.025147     -0.791576
Ti      13.36729     13.61219      2.28483         1.166807     -1.021086     -0.760557
Ti      13.48087     13.73719     15.43408        -0.376688     -1.094224     -0.622969
Ti       1.89786      1.79206      6.61977         0.353569      1.303744     -0.619051
Ti       1.93101     13.39998      6.72079         0.228494     -1.126931     -1.413574
Ti      13.51993      2.00972      6.63100        -0.589896      0.802506     -0.547802
Ti      13.40043     13.61000      6.68997         0.832436     -0.898736     -0.818611
Ti       1.87826      1.85675     11.00012        -0.235856      0.906671     -1.205050
Ti       1.85881     13.50792     11.15374         0.412992     -0.631963     -2.584938
Ti      13.45722      2.08183     10.93339        -0.469256     -0.035756      0.385308
Ti      13.38806     13.61878     11.04208         0.429088     -0.217172     -1.289526
Ti       1.82130      5.75892      2.36114         0.334814      0.496346     -1.474713
Ti       1.86871      5.78803     15.54737         0.774763     -0.569707     -1.427993
Ti      13.39357      5.95694      2.36721         0.464148      1.098604     -0.358856
Ti      13.49313      5.94531     15.51920         0.175028      1.057814     -1.252958
Ti       1.87598      5.82027      6.78104         0.652527     -0.960053     -0.506281
Ti      13.50819      5.98622      6.76084        -1.389010     -1.007879      0.510241
Ti       1.90040      5.75220     11.05841         0.605608      0.004851     -0.509201
Ti      13.38694      5.94133     11.11147        -0.051190      1.046775     -1.937774
Ti       1.86946      9.56733      2.31645        -0.984389      0.830373     -1.674798
Ti       1.96264      9.62044     15.41974        -1.397131     -0.955543     -0.905770
Ti      13.40443      9.66075      2.32685         0.904253      2.441582     -1.402300
Ti      13.36085      9.81415     15.37715         0.481742     -0.125060      0.203885
Ti       1.94298      9.63914      6.83520         0.227182     -0.107463     -1.811975
Ti      13.43029      9.75452      6.78958         0.504464      0.758065     -0.523053
Ti       1.95357      9.68980     11.04113        -0.975249     -1.253169      0.692186
Ti      13.37748      9.84086     11.06279         0.954209     -0.573436      0.738325
Ti       5.78248      1.98140      2.43167         0.656428     -0.321508     -0.874972
Ti       5.71728      1.95393     15.36368        -0.703893     -0.799810     -0.543664
Ti       5.78788     13.40304      2.30258        -0.115653      1.185559     -0.414269
Ti       5.75676     13.44175     15.44918         0.273596      1.166012     -0.701383
Ti       5.87075      1.91939      6.57861        -0.116115      0.717815     -0.403315
Ti       5.78661     13.49230      6.66517         0.955835     -1.315751     -1.051128
Ti       5.62004      1.94078     11.05232         0.809147     -0.036377     -1.311243
Ti       5.71113     13.47723     11.11399        -0.329414     -0.127138     -0.729288
Ti       5.69522      5.83622      2.33980         0.149587     -0.133435     -0.241129
Ti       5.69344      5.70985     15.40534        -0.344167      0.590993     -1.401006
Ti       5.67762      5.85277      6.65001         0.871273     -0.349540      1.149841
Ti       5.74128      5.79863     11.06235        -1.731743      0.212557     -1.017433
Ti       5.65190      9.59392      2.39468         0.993623      0.252460     -0.833352
Ti       5.67179      9.57769     15.36704        -0.609361      0.195831     -1.023072
Ti       5.77285      9.64091      6.71743         0.864509      0.239077     -1.096930
Ti       5.71530      9.62403     11.12696        -0.135698      0.406046      0.358309
Ti       9.66414      2.06710      2.33145        -0.573636     -0.385595     -0.801969
Ti       9.62317      2.11883     15.32877        -0.029033     -0.443395     -0.150471
Ti       9.63303     13.44951      2.26787        -0.044574      0.673342     -0.913371
Ti       9.62049     13.63305     15.45247        -0.357074      0.656742     -1.749859
Ti       9.66943      1.96428      6.64235        -0.462396      1.290341     -0.385217
Ti       9.65836     13.53831      6.72632        -1.350097     -0.375338     -0.338710
Ti       9.54202      2.08095     11.03753         0.538397      0.748503     -0.703500
Ti       9.50515     13.65210     11.00342         0.251306     -1.093663     -0.635019
Ti       9.64954      5.84961      2.31996        -0.178461      0.835152      0.013210
Ti       9.58282      5.89862     15.46915         0.028555      0.002466     -1.986466
Ti       9.59025      5.88843      6.74376        -0.169250     -0.040269      0.154881
Ti       9.41972      5.87153     10.95695         2.744243      0.285853     -0.322473
Ti       9.56969      9.66020      2.31123         0.827286      0.387454     -2.221242
Ti       9.50796      9.68731     15.40321         1.454950      0.127959     -1.147750
Ti       9.64136      9.73146      6.84889        -1.436733     -0.937972     -0.267454
Ti       9.54567      9.64457     11.02833         0.144487      1.382588      0.121792
O       1.94406      1.99527      0.66188        -0.513562     -0.445864      1.485485
O       1.85996      2.00554     13.58481         0.100621      0.140882      1.511108
O       1.87041     13.42802      0.51003         0.001929      0.309238     -0.184969
O       1.85460     13.51698     13.64224         0.410956     -0.271571      0.425539
O      13.73539      2.01478      0.62832        -0.817087      0.458149      1.447640
O      13.37758      2.18824     13.63370         0.078978      0.184735      0.394967
O      13.53465     13.58081      0.40860        -0.456946      0.234637      1.978834
O      13.36160     13.68627     13.68294         0.059020      0.033018     -0.377846
O       1.88898      1.78984      4.83902         0.170503      0.117614      0.509495
O       2.05000     13.26247      4.90917        -0.292800      0.436000      1.025592
O      13.49356      2.15357      4.84464        -0.232134     -0.160060      0.266178
O      13.41094     13.52262      4.90980        -0.289694      0.181006      0.483804
O       1.87017      1.62015      9.17409         0.080613      0.682359      0.980656
O       1.85863     13.40476      9.28298        -0.194862      0.658125      1.710770
O      13.50322      1.96988      9.16113         0.109607      0.086223      0.757363
O      13.43767     13.49451      9.23826         0.242078      0.549615      0.850112
O       1.88440      5.84944      0.56089         0.204387     -0.507229      1.061802
O       1.92117      5.79391     13.74798        -0.196151     -0.115389      0.184531
O      13.34618      6.15962      0.60344         0.081403     -1.030534      0.230777
O      13.50126      5.97627     13.70677        -0.223296     -0.199687      0.366070
O       1.81745      5.93871      5.04237         0.406130     -0.350156     -1.074114
O      13.46332      5.84360      5.04403        -0.206367      0.439104     -0.638402
O       1.89208      5.88278      9.26124         0.149287     -0.487561      0.582533
O      13.53700      6.07296      9.33122         0.062437     -0.442368      0.263741
O       1.83112      9.56215      0.47561         0.204812      0.211142      1.414568
O       1.95679      9.54022     13.56977         0.053594      0.585923      1.807591
O      13.65714      9.82748      0.52648        -0.987168     -0.239721      0.825633
O      13.47178      9.60756     13.63280        -0.382132      0.574865     -0.362974
O       1.89915      9.59033      4.96959         0.231566      0.128300      1.312684
O      13.38588      9.93098      4.98617         0.200267     -1.064210      1.394344
O       1.87211      9.65664      9.30607         0.404687     -0.109834     -1.191889
O      13.44749      9.80081      9.33829        -0.297279      0.212146     -1.190417
O       5.81066      1.94988      0.60300        -0.309468      0.122948      0.938509
O       5.53231      1.94518     13.58595         0.703529      0.214057      0.090411
O       5.88830     13.62833      0.52533        -0.557534     -0.566113      0.719946
O       5.86468     13.42875     13.66895        -0.588588      0.457544      0.507870
O       5.91882      1.87417      4.79205        -0.231714      0.050525      0.392200
O       5.91480     13.49554      4.85366        -0.535358      0.000783      0.799542
O       5.69178      1.98775      9.20694        -0.183623     -0.128257      1.260527
O       5.70247     13.41439      9.32850         0.408095      0.230562      0.690552
O       5.63787      5.76658      0.59011         0.471364      0.071339     -0.007237
O       5.63931      5.81191     13.62565         0.694685     -0.419694      0.541020
O       5.72456      5.91074      4.91731        -0.264048     -0.108466     -0.590867
O       5.68403      5.65846      9.19959         0.187420      0.319620      1.742258
O       5.80236      9.62633      0.63145        -0.041595     -0.081283      0.500389
O       5.65659      9.58958     13.59090         0.016801      0.022623      0.433802
O       5.90636      9.60649      4.91132        -0.474111      0.063036      0.304510
O       5.64517      9.85497      9.39914         0.491432     -0.636476     -0.674574
O       9.49003      2.17125      0.50184         0.431336     -0.389222      1.245413
O       9.65760      2.09993     13.54835         0.001713     -0.003738      0.269501
O       9.58181     13.62221      0.42902         0.014721     -0.426545      1.728084
O       9.65572     13.60508     13.57930        -0.250178      0.228751      1.410948
O       9.69384      2.01735      4.84601         0.002229      0.128655      0.596378
O       9.68514     13.55211      4.97406        -0.093417      0.077699     -0.290858
O       9.60371      2.01118      9.26640         0.079488      0.199602      0.563837
O       9.47834     13.60892      9.22088         0.220694      0.119908      1.060121
O       9.77812      5.74559      0.54886        -0.444669      0.328272      0.270358
O       9.62023      6.04187     13.65835         0.116915     -0.578288      1.436062
O       9.61393      5.96361      4.95042         0.271018     -0.435332      0.071671
O       9.48406      5.93248      9.14760        -0.326794     -0.333327      1.304817
O       9.50643      9.67283      0.46563        -0.162181      0.064549      1.285623
O       9.57478      9.58509     13.59697        -0.535367      0.097597      1.295879
O       9.61147      9.76554      5.07754         0.290180     -0.344968     -0.397329
O       9.71104      9.70271      9.24774        -0.721214     -0.202584      0.631399
O       3.84075      1.99842      2.82311         0.380685     -0.399599     -0.190476
O       3.73625      1.89512     15.88428         0.900458      0.393308      0.148140
O       3.78731     13.49295      2.72405         0.552839     -0.083231     -0.504776
O       3.85076     13.62986     16.04040        -0.364440     -0.660158     -1.127937
O       0.07789      2.06545      2.92601        -1.588474     -0.979232     -0.658835
O      15.29541      2.16234     15.81727         0.405117      0.171809      0.158753
O      15.28619     13.52598      2.72423         0.201647      0.232865     -0.177301
O       0.00407     13.32174     15.79418         0.633666      0.267480     -0.230072
O       3.90084      1.85257      6.96432        -0.573906     -0.049152     -0.223446
O       3.99166     13.44613      7.15031        -1.313011      0.315828     -0.561907
O       0.02772      1.85135      7.06618        -0.114830     -0.503245     -0.214080
O       0.05751     13.17491      6.92232        -0.550587      0.576896      0.475848
O       3.74956      1.90266     11.45558         0.373258      0.357619     -0.354246
O       3.76847     13.57066     11.48304         0.388933     -0.686493      0.156376
O       0.02183      1.86788     11.52021        -1.053954      0.142624     -0.748254
O      15.29776     13.65992     11.50803         0.658699     -0.003738     -0.020571
O       3.76808      5.73464      2.75204         0.293408      0.411800      0.148156
O       3.83998      5.83507     15.80004         0.205986     -0.807410      0.501881
O      15.31034      6.02310      2.72735         0.460221     -0.454625      0.231806
O       0.02113      5.87924     15.92715        -0.685713     -0.768908     -0.211184
O       3.80978      5.72274      7.15743         0.365796     -0.098248     -0.313422
O       0.00840      5.81564      7.08683        -0.271016     -0.508493      0.567211
O       3.84454      5.76175     11.63588        -0.487231     -0.371626     -1.053353
O       0.08368      5.83225     11.56413        -0.473483     -0.208407     -0.439667
O       3.80671      9.66008      2.77126        -0.247078     -0.334380     -0.331663
O       3.82624      9.65523     16.00892         0.013272     -0.393174     -0.968864
O      15.29157      9.92924      2.81682         1.246529     -0.623791     -0.082755
O      15.28492      9.70858     15.73629         1.702150      0.938581     -0.187763
O       3.92218      9.64662      7.13142        -0.856199     -0.363633     -0.073378
O       0.07264      9.55845      7.20837        -0.810340      0.211398     -0.485510
O       3.78522      9.76587     11.46551         0.877214      0.009306      0.072414
O      15.32759      9.83057     11.44632         0.319959      0.364829      0.149792
O       7.74658      2.10732      2.66515        -0.672309     -0.665677      0.320580
O       7.68031      2.02016     15.67828        -0.107544      0.335760      0.194517
O       7.72245     13.50865      2.65980         0.431559     -0.048586      0.015980
O       7.65510     13.57361     15.86580         0.190910     -0.560813     -0.403735
O       7.76279      1.96456      7.10814        -1.066973      0.060825     -0.543954
O       7.75928     13.43575      7.11415        -1.029922      0.325071     -0.040075
O       7.63615      2.00108     11.37994        -0.298247      0.070757      0.365405
O       7.60998     13.75782     11.52578         0.696225     -0.463980     -0.329659
O       7.73821      5.86818      2.77542        -0.700474      0.527717     -0.647799
O       7.67882      5.90678     15.76247         0.108343     -0.584990      0.277030
O       7.63415      5.83240      7.04344        -0.231235     -0.068188      0.206524
O       7.65650      5.91103     11.49211        -1.252713     -0.168762     -0.135856
O       7.81919      9.66317      2.83581        -1.857348     -0.240495     -0.500648
O       7.54932      9.59859     15.76720         1.053459      0.468966     -0.184938
O       7.69010      9.61180      7.26402        -0.129976      0.093187     -0.083849
O       7.60115      9.59936     11.44046         0.725311     -0.119533     -0.126278
O      11.56631      2.10891      2.65623         0.529932      0.381571      0.021773
O      11.44974      2.00487     15.88311         1.051908      0.490064     -0.216981
O      11.53118     13.56635      2.62268        -0.159567      0.397418      0.007990
O      11.50562     13.73207     15.92840        -0.144334     -0.041074     -0.592121
O      11.58416      1.97347      7.07697        -0.207426     -0.110844     -0.278858
O      11.49763     13.72939      7.10586         0.849161     -0.557072      0.066952
O      11.56622      2.12601     11.38654         0.175379      0.212104     -0.164771
O      11.49319     13.54993     11.24571        -0.683587      0.280414      0.597173
O      11.55737      6.01625      2.83283        -0.472868     -0.672381      0.008716
O      11.65485      5.82402     15.89078        -1.380300      0.432327     -0.237803
O      11.49233      5.84724      7.21956         1.020292      0.160781     -0.427377
O      11.47661      5.94899     11.30762         0.422227     -0.294127      0.552442
O      11.56646      9.62902      2.73734        -0.990421      0.281194      0.108266
O      11.44042      9.76050     15.74741        -0.079530     -0.318095      0.031414
O      11.46850      9.63764      7.24756         2.157436      0.554715     -0.684575
O      11.41552      9.89647     11.47882         0.864483     -0.485725     -0.161042
O       1.89379      3.83674      2.85099         0.290048      0.744365     -0.260415
O       1.84565      3.85103     15.96918         0.252583      0.284643     -0.115510
O       1.71001     15.29712      2.87113         0.972013      0.344978     -1.038195
O       1.78535      0.12866     15.71373         0.199757     -1.992085      0.460290
O      13.47589      4.07915      2.78519        -0.281380     -0.249314     -0.445198
O      13.48241      3.96276     15.92575        -0.034581      1.495219     -0.043585
O      13.55076     15.55005      2.82718        -0.401146     -0.214598     -0.614350
O      13.47521      0.22798     15.75599         0.013634      0.347581      0.575269
O       1.81952      3.72975      7.03054         0.582197      0.274614      0.023286
O       1.81208     15.26543      7.04114         0.591282      0.263175     -0.145260
O      13.49108      3.90060      7.15406        -0.336716      0.926364     -0.362042
O      13.61592     15.46956      6.89331        -0.324601      0.177197      0.396597
O       1.88094      3.78486     11.36194         0.038534      0.675891     -0.163827
O       1.89541      0.08519     11.57346        -0.260734     -1.558199     -0.229172
O      13.52920      4.09054     11.31422        -0.061264     -1.242909      0.395027
O      13.46867     15.54531     11.44510        -0.304958      0.144080     -0.385926
O       1.80057      7.73688      2.73243         0.541668     -0.520561      0.326469
O       2.10403      7.65437     15.79329        -0.974967      1.512925     -0.190077
O      13.56689      7.90387      2.81384        -0.436026     -1.234352      0.275098
O      13.44142      7.91054     15.90033        -0.746932     -0.806242     -0.366492
O       2.00707      7.65253      7.11240        -0.002816      1.329938      0.496139
O      13.49849      7.85439      7.18827        -0.375622      0.566384     -0.508359
O       2.03411      7.76060     11.38303        -0.390510     -0.762604      0.052554
O      13.41601      7.90628     11.39150        -0.063598      0.192469      0.488875
O       1.92246     11.52453      2.59169         0.165186     -0.202569      0.343610
O       2.06210     11.53245     15.69679        -0.335921      0.136568     -0.063528
O      13.35591     11.60893      2.84615        -0.098327      1.234570     -0.722218
O      13.25844     11.72575     15.69932         0.757896     -0.052034      0.143498
O       2.05628     11.54163      7.24506        -0.256339     -0.945805     -0.431807
O      13.36752     11.67872      7.14723        -0.112825     -0.639030     -0.173259
O       1.96317     11.59983     11.46534        -0.799505      0.067031      0.288061
O      13.43001     11.73188     11.58223         0.086253      0.093127     -0.275543
O       5.80942      3.93471      2.77082        -0.432378     -0.381642     -0.005956
O       5.67631      3.82248     15.71515         0.320638      0.516497      0.594222
O       5.72650     15.32411      2.77098         0.465002      1.034941     -0.356369
O       5.76570      0.08707     15.64751         0.015711     -0.379462      0.815787
O       5.77117      3.79926      6.95460        -0.196175      0.400621      0.039122
O       5.80419     15.36759      7.02715         0.204838      0.508561     -0.216423
O       5.70923      3.85239     11.48976         0.195546      0.152294     -0.208943
O       5.58843     15.42774     11.49260         0.760808      0.311189     -0.109499
O       5.62358      7.73164      2.75477         0.698897     -0.155017     -0.051800
O       5.75914      7.68142     15.68668        -0.371205      0.600443      0.679153
O       5.74158      7.74717      7.10986        -0.158727     -0.631860      0.235666
O       5.59712      7.70421     11.24324         0.352630     -0.109132      0.245834
O       5.79567     11.53639      2.75817        -0.273944      0.039903     -0.527832
O       5.65193     11.52647     15.75691         0.331718      0.503251      0.268270
O       5.79855     11.52902      7.09971         0.308113      0.407744     -0.140481
O       5.90041     11.61583     11.61766        -0.872955      0.276876     -0.503585
O       9.54281      4.02404      2.79212         1.128654     -0.513906     -0.085415
O       9.63837      3.98451     15.76092        -0.078204      0.103491      0.057348
O       9.75404      0.17603      2.78040        -0.754543     -0.696512     -0.671998
O       9.58211     15.47948     15.72792        -0.223075      0.731513      0.240922
O       9.64922      3.90306      7.12873        -0.087357     -0.213418     -0.481784
O       9.53488     15.48885      7.12217         0.326358     -0.429969     -0.227567
O       9.60566      4.06402     11.50937        -0.415774     -0.654516     -0.291406
O       9.66384      0.21796     11.37055        -0.266186     -0.974892      0.198929
O       9.72302      7.82874      2.80152        -0.683894     -0.666753     -0.257942
O       9.66256      7.79545     15.85104        -0.583374     -0.065004     -0.049797
O       9.65183      7.75483      7.10960        -0.433821      0.213907      0.237836
O       9.63331      7.81414     11.40895        -0.435903     -0.400870     -0.176829
O       9.70573     11.56816      2.77557        -0.355087      0.834326     -0.747215
O       9.61152     11.62269     15.75124        -0.740396      0.296400     -0.265822
O       9.64514     11.58501      7.23700         0.196065      0.927174     -0.486779
O       9.43080     11.65199     11.52254         0.060416      0.800918     -0.686342
