  # total energy = -7878.46708730 
CRSYTAL
PRIMVEC
    15.3600000000000000    0.2300000000000000    0.0000000000000000
     0.0000000000000000   15.3600000000000000    0.0000000000000000
     0.0000000000000000    0.0000000000000000    17.440000000000000
PRESSURE
0.722774 0.644998 -5.17441 -0.176268 0.051565 -1.54288
PRIMCOORD
320 1
Pb       3.86168      3.84350      4.24781         0.247939     -0.163661     -0.351479
Pb       3.72049      3.95010     17.32082         0.921066     -0.239226      0.172791
Pb       3.70282     15.39697      4.54573         0.027830      0.082311     -0.999552
Pb       3.70392     15.30841     17.42658         0.123812      0.349356     -0.291717
Pb       0.15962      3.75520      4.20042        -1.095104     -0.181466      0.220713
Pb       0.02268      3.71749     17.27917        -0.735312     -0.318785      0.440409
Pb      15.27143      0.30014      4.44429         0.126813      0.149134     -1.177637
Pb      15.26270     15.47581     17.30727        -0.006335      0.026522      0.533422
Pb       3.86987      3.93354      8.64581         0.145632      0.242020      0.448430
Pb       3.71840      0.18587      8.85233         0.284658     -0.936079     -0.354004
Pb       0.09796      4.26371      8.80499        -0.494536     -1.165589      0.345042
Pb       0.07605     15.29042      8.73270        -0.612605     -0.087230      0.337537
Pb       4.07871      4.00669     13.03153        -0.167732     -0.290981      0.088183
Pb       3.82396      0.20950     13.13216         0.090322      0.065418     -0.256145
Pb      15.33657      4.14003     13.00342        -0.192042     -0.486616      0.071126
Pb      15.32878      0.30425     13.10180        -0.282766      0.222856     -0.166014
Pb       3.89723      7.73970      4.37232        -0.133942     -0.491131      0.188138
Pb       3.79116      7.82606     17.38862         0.487492     -0.072859      0.134462
Pb      15.16922      7.69522      4.30237         0.490927      0.217048      0.080671
Pb      15.34008      7.90632     17.31883         0.017380      0.080494      0.154782
Pb       3.68269      7.69219      8.54187         0.504457      0.360177      0.016309
Pb      15.15789      8.06431      8.69819         0.425238     -0.707476     -0.424440
Pb       3.88654      7.77651     12.89802         0.064243      0.267953      0.556925
Pb       0.01825      7.69912     13.02914        -0.585060      0.107222      0.041891
Pb       3.87661     11.53550      4.19667        -0.103694      0.108153      0.561181
Pb       3.81020     11.61828     17.40547         0.272705     -0.569115     -0.144257
Pb       0.04628     11.57113      4.23609        -0.478868     -0.191157      0.136922
Pb       0.18771     11.49918      0.10024        -0.725525      0.141778     -0.545581
Pb       3.61194     11.56100      8.59481         0.691090     -0.068479      0.316300
Pb      15.25060     11.77762      8.51824        -0.239794      0.255815      0.414034
Pb       3.86081     11.50165     12.92844        -0.008061     -0.164398     -0.071471
Pb       0.03285     11.36509     13.06163        -0.364537      0.098462     -0.457840
Pb       7.53378      3.76347      4.35646         0.061073      0.116982     -0.115452
Pb       7.51835      3.98840     17.41536         0.511064      0.147476     -0.272790
Pb       7.41578     15.45520      4.42483         0.309521      0.415964     -0.158156
Pb       7.68697      0.20111     17.42437         0.000863      0.001511     -0.514667
Pb       7.60571      4.04345      8.60168         0.470919     -0.010893      0.225432
Pb       7.68353     15.47025      8.76733         0.187988     -0.255855     -0.618642
Pb       7.69882      3.85073     13.00957        -0.307014     -0.022930      0.283769
Pb       7.62696     15.19719     13.17597         0.175743      0.838379     -0.120689
Pb       7.74106      7.63906      4.44048        -0.352373      0.654881     -0.111375
Pb       7.78613      7.80498      0.21934         0.000448     -0.194466     -0.711178
Pb       7.84115      7.91052      8.58779        -0.624313     -0.433716      0.114130
Pb       7.60427      7.81643     13.01336         0.231083     -0.089641      0.203093
Pb       7.71083     11.91892      4.49600        -0.178641     -0.569406     -0.864052
Pb       7.67555     11.51999      0.10082         0.192351     -0.084007     -0.653732
Pb       7.56389     11.76978      8.82737         0.021805     -0.599048     -0.343584
Pb       7.75161     11.58543     13.23435        -0.401816     -0.471153     -0.469156
Pb      11.50516      4.01746      4.42822         0.202335     -0.351764     -0.564624
Pb      11.43889      3.87392      0.04971        -0.275034     -0.240162     -0.661262
Pb      11.60683      0.27889      4.26957        -0.104546     -0.004377     -0.354226
Pb      11.36796     15.27036      0.08422         0.858047      0.762546     -0.219274
Pb      11.49398      3.97167      8.77038         0.233155     -0.160476     -0.333064
Pb      11.60694      0.18215      8.76753         0.029924     -0.178467     -0.158066
Pb      11.48205      3.91648     13.11069         0.164797     -0.315750      0.131131
Pb      11.60177     15.31280     13.00397        -0.051055      0.665485      0.115654
Pb      11.39901      7.91523      4.21589         0.239783     -0.233691      0.333725
Pb      11.56385      7.68751      0.01935        -0.461805      0.634659     -0.251689
Pb      11.51119      7.82631      8.55779        -0.183836     -0.087723     -0.046522
Pb      11.42393      7.70820     13.12938         0.039520      0.057627     -0.238436
Pb      11.68390     11.61401      4.21486        -0.268552      0.192965      0.069522
Pb      11.58713     11.59900     17.40781        -0.162544      0.144110      0.102826
Pb      11.36246     11.67332      8.50089         1.059358      0.223708      0.837468
Pb      11.53740     11.55893     13.04065        -0.065873      0.127734     -0.215809
Ti       1.88549      1.85540      2.18673        -0.491760     -0.800940     -0.483248
Ti       1.94189      1.84273     15.45135        -0.422686      0.628350     -1.194088
Ti       1.87780     13.39810      2.27577        -0.516451      1.590076     -0.953038
Ti       1.97969     13.38903     15.24980        -0.826347      0.516176      0.303780
Ti      13.37270      2.16606      2.17877         0.217058     -1.355298      0.786943
Ti      13.30561      1.95543     15.46892         0.637884      0.459348     -2.156097
Ti      13.38792     13.58115      2.24522         0.754001      1.336922     -1.384983
Ti      13.50604     13.54736     15.39293         0.111691      0.273965     -0.704134
Ti       1.83082      1.98608      6.82404         0.398018     -0.233054     -1.427344
Ti       1.83717     13.55271      6.69018         0.602133     -0.583435     -0.624836
Ti      13.45471      2.14156      6.78960        -0.422486      0.353906     -1.645226
Ti      13.35114     13.66129      6.49356         1.461411      0.237413      0.501882
Ti       1.98943      2.03899     10.99628        -1.321430     -0.003119     -0.101433
Ti       1.87300     13.50906     11.02777         0.062177      0.175470     -1.539837
Ti      13.38981      2.05563     11.05369         0.372227     -0.135738      0.455418
Ti      13.53146     13.54974     10.99305        -1.367072      0.095118     -0.920619
Ti       1.94011      5.72957      2.32777        -0.364277      0.020134     -0.653102
Ti       1.94245      5.72067     15.40601         0.053558      0.663521     -1.085044
Ti      13.34491      5.87165      2.27890         0.519463     -0.160627      0.560062
Ti      13.45028      5.89483     15.44170        -0.495188     -0.438560     -1.899167
Ti       1.90437      5.71870      6.57868        -0.230074      1.446430     -0.684088
Ti      13.43533      5.86825      6.66189        -0.446961      0.481066     -1.006966
Ti       1.91586      5.89690     11.04362         0.278007     -0.878695     -1.547435
Ti      13.30352      5.94570     11.03116         0.032601     -0.308554     -0.425564
Ti       1.91266      9.50685      2.36536        -0.196280     -0.519588     -1.144551
Ti       1.88703      9.59088     15.40821         0.023465      0.322769     -0.692756
Ti      13.50121      9.70981      2.19240        -0.401779      1.118097     -0.638938
Ti      13.41664      9.83639     15.36922         0.343229     -0.985097      0.219741
Ti       1.85000      9.63269      6.57296         0.335577     -1.173363      0.540337
Ti      13.47304      9.78613      6.52450        -0.550940     -0.084774     -1.176223
Ti       1.80893      9.62421     10.78884         0.337088      0.205002      1.549823
Ti      13.32122      9.73611     10.90538         0.662420      0.369723      1.107253
Ti       5.66483      1.97103      2.20602         0.001050      0.309887      0.334377
Ti       5.72753      1.94070     15.40296         0.471009      0.929688     -1.164834
Ti       5.61795     13.59809      2.26412         1.009783     -0.078676      1.018214
Ti       5.80408     13.48999     15.54744         0.096031      0.079892     -1.818036
Ti       5.69119      1.95552      6.82989         1.228233     -0.453955     -1.460647
Ti       5.68058     13.45410      6.70050         0.106013      0.962789     -0.620987
Ti       5.76948      1.90702     10.93526        -0.004227      0.649438      0.760441
Ti       5.77166     13.43963     11.07362        -0.546280     -0.333121     -1.103149
Ti       5.73922      5.90955      2.30949         0.219806     -0.703688     -2.050936
Ti       5.87073      5.90178     15.42594         0.300827     -0.149098     -1.312771
Ti       5.75032      5.89378      6.71278         1.229943      0.577004     -1.104127
Ti       5.78574      5.83512     10.94810         0.315330     -0.376940     -1.344723
Ti       5.81660      9.67555      2.39739         0.062497     -0.002054     -1.248417
Ti       5.76149      9.66491     15.39792         0.227034      0.359766     -0.512637
Ti       5.74916      9.72642      6.57240        -0.147598     -1.012927      0.591613
Ti       5.73448      9.62498     10.95232         0.245885      0.987246      0.026603
Ti       9.47011      2.02133      2.35567         0.825262      0.527431     -0.918295
Ti       9.59546      1.98377     15.32727        -0.115469      0.909283     -1.112362
Ti       9.54383     13.64025      2.34605         0.326601     -0.355723     -0.030683
Ti       9.64012     13.56763     15.46384        -0.114245     -0.761588      0.223882
Ti       9.57221      2.03716      6.67432         0.011510     -0.409994     -1.213680
Ti       9.54928     13.54758      6.63952         0.057574      1.108305     -1.344542
Ti       9.62695      1.98395     11.04940         0.304752     -0.672391      0.937112
Ti       9.57893     13.46709     11.08222         0.866289      0.381200     -0.884561
Ti       9.48290      5.89005      2.45654         0.849981     -0.464593     -1.912930
Ti       9.67449      5.89065     15.48683        -1.448984     -0.330984     -0.368328
Ti       9.63954      5.82988      6.65272        -0.811684      0.782134     -0.929093
Ti       9.50388      5.81887     11.00248         0.211530      0.953362     -1.224360
Ti       9.56267      9.86678      2.36879        -0.212290     -1.117977     -0.775327
Ti       9.61249      9.74570     15.42446        -0.272986     -0.168325     -0.682353
Ti       9.61922      9.79632      6.60030        -0.399850     -1.304686     -1.728239
Ti       9.58887      9.67263     10.97199        -0.585945     -0.167909      0.465785
O       1.83416      1.87849      0.38899         0.255087      0.107557      0.560208
O       2.02808      1.88539     13.64542        -0.201626      0.033968      0.533222
O       1.97886     13.34605      0.36276        -0.045410      0.366963      2.775466
O       1.92672     13.38448     13.45229         0.025027      0.065197      0.390246
O      13.34878      2.05368      0.43688        -0.091183      0.419109     -0.819159
O      13.42847      1.72969     13.52909        -0.183072      0.609131      1.420134
O      13.45821     13.57992      0.37899        -0.205577     -0.136323      1.338445
O      13.62685     13.60483     13.53770        -0.447549     -0.077328      1.300386
O       1.83834      1.87210      4.94723         0.151970      0.311158      1.236514
O       1.79584     13.61371      4.84947         0.354795     -0.244960      1.384068
O      13.46625      2.18429      4.93776         0.215733     -0.328731      1.467075
O      13.60148     13.75004      4.70592        -0.685432     -0.303342      0.891413
O       2.00410      2.01190      9.16377         0.258029     -0.076737      0.996970
O       1.83915     13.55404      9.07349        -0.104013     -0.294084      1.712041
O      13.13276      2.14600      9.28249         0.303389     -0.151003     -0.485400
O      13.43518     13.52502      9.18843         0.201400      0.062231      0.244822
O       2.00658      5.73873      0.53015        -0.184765      0.027137     -0.001433
O       1.75830      5.78186     13.60714         0.606975      0.082836      1.164179
O      13.28857      5.88823      0.51010         0.157605      0.128548     -0.305759
O      13.40826      5.92956     13.57980        -0.102715     -0.081722      1.677278
O       1.84466      5.69079      4.72802         0.253144     -0.595626      1.817631
O      13.47158      5.77127      4.85088         0.148158      0.430202      0.998003
O       1.90980      5.86922      9.09187        -0.000356     -0.044028      2.566778
O      13.36595      5.93194      9.15840        -0.014224      0.054233      1.765980
O       1.96419      9.52079      0.49080         0.067967      0.242278      1.718376
O       1.80049      9.45763     13.60981         0.183941      0.662168      0.923827
O      13.33651      9.79722      0.35726         0.658668     -0.541201      1.720583
O      13.56644      9.80894     13.56840        -0.267491      0.025471      0.532819
O       1.78952      9.62120      4.82841         0.026491     -0.124816     -0.450749
O      13.60531      9.81868      4.68422        -0.478656      0.001442      1.740758
O       1.83851      9.54118      9.04297        -0.005171     -0.141009     -0.353861
O      13.40158      9.69429      9.12799        -0.402107      0.238751      0.481821
O       5.78883      1.95114      0.44012         0.103417     -0.272894      0.288207
O       5.59703      2.03661     13.54172         0.162229     -0.263961      0.933557
O       5.56994     13.71417      0.50078         0.263243     -0.427138     -0.245719
O       5.88691     13.50623     13.66821        -0.501926     -0.200475      1.169312
O       5.83843      1.99477      4.93091        -0.428057      0.265117      1.326149
O       5.71436     13.49500      4.80621         0.171169     -0.090096      2.044916
O       5.61276      1.85896      9.12703         0.497580      0.349987      1.074950
O       5.80451     13.33534      9.19930         0.057483      0.296194      1.713445
O       5.96693      5.97562      0.41544        -0.769466     -0.416015      1.372438
O       5.84952      5.79829     13.53449        -0.220633      0.180533      1.461529
O       5.73309      5.87423      4.86804         0.185600     -0.337640      0.848707
O       5.79975      5.84272      9.10332        -0.037089     -0.083157      0.898258
O       5.78769      9.65103      0.53157        -0.000955     -0.034544      1.532112
O       5.67614      9.74677     13.56779         0.042149     -0.364908      0.998346
O       5.66523      9.60269      4.79695         0.041337      0.466095      0.336610
O       5.68411      9.85718      9.21884         0.306258     -0.298944      0.062843
O       9.52042      2.02077      0.51395        -0.079327     -0.179503      1.555320
O       9.62204      1.98047     13.49264        -0.155834      0.110121      1.159360
O       9.70633     13.55358      0.53843        -0.597540      0.471828      0.715504
O       9.46927     13.53800     13.69174         0.171094     -0.154088      0.066284
O       9.41750      2.07469      4.83997         0.235971     -0.253210      1.186222
O       9.53147     13.51376      4.77691        -0.233958     -0.085966      1.543770
O       9.82806      2.01048      9.26690        -0.399064     -0.134741      0.595104
O       9.54419     13.46083      9.26622         0.017743     -0.204944      0.356145
O       9.52328      5.99484      0.55963         0.327721     -0.498123      1.389762
O       9.70631      5.94861     13.70528        -0.154923     -0.157656      0.139783
O       9.52940      5.94162      4.82309         0.156507     -0.156488      0.220575
O       9.52339      6.01460      9.17406         0.173368     -0.821732      0.975917
O       9.48511      9.79820      0.51738         0.124606      0.025127      1.375115
O       9.65412      9.81254     13.56753        -0.112179     -0.455103      1.520790
O       9.67544      9.71249      4.72344        -0.293895      0.486173      1.814692
O       9.69630      9.59807      9.16434        -0.133912      0.541642      0.681040
O       3.77310      1.92822      2.58280         0.134499      0.415717      0.225085
O       3.90665      1.95002     15.85327        -1.685780      0.122086     -0.022028
O       3.83071     13.50246      2.85495        -1.318493      0.018188     -0.690237
O       3.81720     13.41807     15.80720         0.060306      0.233652     -0.440383
O      15.23253      2.01902      2.59185         1.172459      0.728087      0.295084
O      15.27405      2.05697     15.76326         1.013970      0.195461      0.066086
O      15.33884     13.64593      2.58491         0.981884     -0.131332     -0.083021
O       0.02850     13.37493     15.80996        -0.052002      0.385828     -0.478785
O       3.89175      1.96690      7.12523        -1.316990      0.009960     -0.239236
O       3.84361     13.53297      7.10562        -0.598980     -0.397057     -0.507453
O       0.04557      1.95662      7.19411        -0.894750     -0.119848     -0.130757
O       0.01269     13.46885      7.03042        -0.697748      0.208427     -0.133241
O       3.81398      1.99439     11.52560         0.495922      0.258806     -0.874376
O       3.68508     13.35707     11.23536         1.587995      0.093778      0.477698
O      15.32828      2.10340     11.38808         0.390091      0.382024     -0.113329
O       0.00053     13.52369     11.35225         0.439615     -0.415615      0.036753
O       3.87573      5.73089      2.64467        -0.703096     -0.047946      0.297206
O       3.93799      5.76149     15.65883        -1.615563      0.060823      0.327599
O      15.29662      5.97768      2.65094        -0.106289     -0.655984     -0.161962
O       0.01169      5.65934     15.81155        -0.022675      0.408396      0.001107
O       3.91729      5.82605      6.93434        -1.718838     -0.462325      0.245438
O      15.31194      6.01233      7.08393         1.211110     -0.356676     -0.540885
O       3.88855      5.80369     11.28308        -1.348806      0.601014      0.228016
O      15.23911      5.86789     11.45614         0.679784      0.936672     -0.932613
O       3.75439      9.44105      2.82859         0.368996      1.074781     -0.670258
O       3.81347      9.60403     15.77919         0.238094      0.633106     -0.001644
O       0.01020      9.61298      2.53230         0.126402     -0.368906      0.010088
O       0.02773      9.67910     15.85340        -0.285560     -0.831941     -0.084250
O       3.76405      9.64470      7.02372         0.221684     -0.039755     -0.389153
O      15.24921      9.75506      7.10688         1.042302      0.091595     -0.412299
O       3.83662      9.63218     11.27315        -0.555841     -0.093507      0.337900
O      15.30179      9.69001     11.32188        -0.286090     -0.151057     -0.403085
O       7.57084      1.96261      2.71454         0.409330      0.008058     -0.186389
O       7.67905      1.87453     15.59518        -0.013612      0.114430      0.648614
O       7.57775     13.67162      2.72292         0.303475     -0.643787     -0.391277
O       7.66557     13.52463     15.87616         0.593296      0.357025      0.217524
O       7.75997      1.97577      7.26148        -0.717407     -0.041606     -0.124190
O       7.64866     13.43019      7.14631         0.122308      0.196380     -0.702550
O       7.60043      2.02485     11.35275         0.531370     -0.306222     -0.526020
O       7.63135     13.50841     11.53778        -0.027775     -0.526704     -0.636401
O       7.60729      5.87981      2.63169         0.863242     -0.152928      0.691112
O       7.73094      5.84554     15.73838        -0.084063     -0.259812      0.237885
O       7.72972      5.93739      6.98979        -0.696553     -0.523363      0.270335
O       7.62731      5.72358     11.43944         1.020431      0.278676     -0.122613
O       7.61454      9.71068      2.80883         0.344653      0.355316     -0.458983
O       7.69683      9.78876     15.68915         0.033256      0.322085      0.161159
O       7.71542      9.67036      6.98867        -0.147334      0.695823     -0.444814
O       7.64365      9.70342     11.39589         0.499425      0.094505     -0.232753
O      11.53050      2.07033      2.75454        -1.190081     -0.185525      0.018098
O      11.48570      2.03529     15.76622        -0.319196     -0.304135      0.229955
O      11.54010     13.52495      2.71433        -1.064498      0.239288     -0.066246
O      11.56267     13.54806     15.82426        -0.280866      0.015501     -0.468932
O      11.50744      2.07709      6.92775        -0.298259      0.063763      0.534169
O      11.60421     13.53012      6.93358        -1.907675      0.161827     -0.086673
O      11.52105      1.92820     11.56667        -0.951157      0.160775     -0.511802
O      11.50303     13.49796     11.46186        -0.147821     -0.245574     -0.134484
O      11.52661      5.88597      2.87435        -0.988431      0.860342     -0.643909
O      11.52321      5.95818     15.83822         0.576766     -0.151873      0.149980
O      11.48444      5.89511      6.97459         0.415461     -0.038652      0.152396
O      11.38270      5.96031     11.44170         0.791771     -0.436466     -0.179090
O      11.55486      9.79689      2.71453        -0.663278      0.040307     -0.551562
O      11.54336      9.81218     15.79676        -0.238037     -0.451520     -0.453162
O      11.54751      9.75900      6.95130        -0.215220      0.102023     -0.114896
O      11.47223      9.71196     11.47414         0.352076     -0.120316     -0.550444
O       1.86985      3.71793      2.61582         0.130937      0.883149      0.182458
O       1.81434      3.77862     15.84854         1.023890      1.204407     -0.490239
O       1.90694     15.33977      2.65579         0.136570     -0.189902     -0.091255
O       1.95739     15.38543     15.73109        -0.019760     -1.451110     -0.186076
O      13.22437      4.01218      2.66332         0.992132      0.208096     -0.354084
O      13.28143      3.87316     15.66375         0.678929      1.920505      0.391667
O      13.35754     15.50547      2.50120        -0.193188      0.260917      0.707866
O      13.44745     15.48400     15.80839        -0.205835     -1.153390      0.036183
O       1.97789      3.85282      7.18453        -0.097934      1.125976     -0.791799
O       1.93556      0.05922      7.13863        -0.000902     -0.105306     -0.271270
O      13.43362      4.06373      7.18719        -0.107622     -0.630587     -0.057072
O      13.38340      0.23120      7.04404         0.572319     -0.560982     -0.002119
O       1.89886      4.02113     11.43070         0.108057     -0.700035     -0.420968
O       1.93328      0.15665     11.29035         0.320178     -1.167257     -0.080805
O      13.29548      3.93486     11.50670         0.052966      1.018227     -0.361532
O      13.34277     15.43286     11.18719         0.154435      0.639110      0.446793
O       1.87587      7.52022      2.75682        -0.028669      1.964246     -0.265685
O       1.98811      7.75675     15.85574        -0.793611     -1.924673     -0.284661
O      13.41988      7.91135      2.72201        -0.149747     -0.894739     -0.633712
O      13.44817      7.82925     15.76679         0.221797     -0.151620      0.059752
O       1.92031      7.61460      6.96073        -0.086315     -0.029566     -0.372134
O      13.44926      7.84969      6.98772        -0.301324      0.157738     -0.225721
O       1.95237      7.79922     11.50169        -0.292888     -1.738042     -0.763512
O      13.29956      7.79229     11.43397         0.400843      0.435739     -0.531708
O       1.86754     11.52024      2.71793         0.794236     -0.274988     -0.470066
O       1.80120     11.61577     15.79509         1.096534     -1.563156     -0.554495
O      13.46819     11.71492      2.57070         0.002697     -0.951244      0.379157
O      13.44116     11.64107     15.74268         0.079497      1.129340     -0.169625
O       1.80601     11.44476      6.98144         0.062173      1.733236     -0.127481
O      13.46474     11.73304      6.87606         0.265080     -0.211170     -0.115370
O       1.80276     11.42825     11.20645        -0.045344      0.923321      0.191700
O      13.46004     11.65126     11.33266         0.050608     -0.949570      0.150993
O       5.76707      3.92966      2.54095        -0.193569     -0.695062      0.562250
O       5.80035      3.87445     15.76049         0.105756      0.580753      0.218198
O       5.60898      0.12803      2.85100         0.217293     -0.366936     -0.627326
O       5.73935     15.43798     15.72190        -0.188511     -0.795305      0.359416
O       5.80290      3.85943      7.13030         0.014507      0.927777     -0.282921
O       5.78603     15.41775      7.08116         0.258263     -0.611331     -0.103614
O       5.78664      3.94339     11.31516        -0.562592     -1.086748      0.012709
O       5.69277     15.36975     11.37530        -0.220550      0.218417     -0.155174
O       5.76740      7.73438      2.73974        -0.276693      0.265460      0.033394
O       5.92156      7.84077     15.72690        -0.690946     -1.012560     -0.108399
O       5.78433      7.83311      7.01531        -0.312084     -0.551692     -0.051978
O       5.83445      7.70734     11.39413        -0.338304      0.612217     -0.147831
O       5.62494     11.62477      2.59033         0.079562     -0.266848      0.047782
O       5.78133     11.59247     15.93449        -0.354234      0.076366     -0.112861
O       5.72357     11.57203      6.98749        -0.013611      0.303290     -0.096198
O       5.77275     11.57900     11.59094        -0.211397      0.280177     -0.727841
O       9.60408      3.96153      2.71019        -0.423302     -0.069842     -0.024303
O       9.63960      3.86423     15.79399        -0.136199      1.115835      0.029591
O       9.56518      0.14464      2.73070         0.354468     -0.216271     -0.181686
O       9.71163     15.50436     15.79959        -0.642432     -1.369247      0.244796
O       9.54222      3.92474      6.96229         0.124217      0.535767      0.343668
O       9.53924     15.36036      7.06626         0.307851      0.626643      0.047617
O       9.65419      3.90398     11.47973        -0.232155      0.028058     -0.545092
O       9.53080     15.32576     11.43729         0.040585      1.301923     -0.268577
O       9.44790      7.85690      2.65409         0.789196     -0.369599      0.397500
O       9.56014      7.84769     15.88980         0.489703     -0.108946     -0.297130
O       9.57921      7.81086      7.00018         0.557165      0.463643     -0.177076
O       9.42572      7.73080     11.39065         0.456106      0.612520      0.191182
O       9.49780     11.69289      2.60238        -0.045742      0.266837      0.530326
O       9.62483     11.65616     15.87927        -0.152123      0.191361     -0.204461
O       9.59692     11.66240      6.99549         0.043888     -0.485824     -0.052107
O       9.63264     11.56485     11.49239        -0.496183     -0.001641     -0.353248
