  # total energy = -7882.28071288 
CRSYTAL
PRIMVEC
    15.3600000000000000    0.2300000000000000    0.0000000000000000
     0.0000000000000000   15.3600000000000000    0.0000000000000000
     0.0000000000000000    0.0000000000000000    17.440000000000000
PRESSURE
2.43129 2.44451 3.47673 0.158701 0.349244 -1.60299
PRIMCOORD
320 1
Pb       3.75213      3.84213      4.27519         0.101387      0.185583      0.687700
Pb       3.81786      3.92910     17.35575        -0.109514     -0.132757     -0.191647
Pb       3.69310      0.08513      4.33836         0.895940     -0.418575      0.495655
Pb       3.74106     15.40616     17.23953         0.451947     -0.381046      0.341375
Pb      15.33849      4.00799      4.36228         0.169040      0.394644     -0.529712
Pb      15.31514      4.04534     17.31546        -0.021618      0.066475      0.101673
Pb      15.32613      0.34739      4.28550        -0.211374     -0.525422      0.365344
Pb      15.35185     15.53071     17.31341         0.072631      0.099293      0.153518
Pb       3.79989      4.02868      8.70150        -0.120979     -0.074549     -0.022675
Pb       3.71685      0.09606      8.75984         0.173385     -0.281234      0.006422
Pb       0.00623      3.94828      8.85151         0.227732      0.220858     -0.335223
Pb      15.26702      0.29215      8.74095         0.510607     -0.406770     -0.035472
Pb       3.91898      3.97785     13.07935         0.005115     -0.305048     -0.356349
Pb       3.83063      0.10810     13.01558         0.546677     -0.425858      0.039091
Pb      15.32805      4.06213     13.04236         0.013531      0.566408     -0.307550
Pb      15.29358     15.56035     13.03750         0.579287     -0.550466     -0.024478
Pb       3.86640      7.70893      4.25009        -0.067219      0.351480      0.529253
Pb       3.83966      7.70898      0.01967        -0.205557      0.139546     -0.351434
Pb      15.30755      7.77338      4.23917         0.423321      0.137464      0.170375
Pb       0.04324      7.53302     17.37223         0.103129      0.513745      0.644916
Pb       3.80097      7.82529      8.56178        -0.485619     -0.629441      0.601282
Pb      15.24951      8.03497      8.54938         0.153153     -0.418160      0.808482
Pb       3.91377      7.79413     13.02155        -0.215516      0.003528     -0.344005
Pb      15.32608      7.94183     13.03938         0.114777     -0.051835     -0.098579
Pb       3.85818     11.53950      4.34554         0.031194      0.177945     -0.001876
Pb       3.91132     11.50766     17.38392        -0.781788      0.425659      0.448913
Pb       0.00017     11.44825      4.28691         0.012099      0.519991     -0.025130
Pb       0.09008     11.45582     17.34976        -0.417581      0.213956      0.930408
Pb       3.72195     11.53933      8.65441        -0.094868      0.571569     -0.089445
Pb      15.22928     11.75855      8.57154         0.457320      0.118867      0.289097
Pb       3.91932     11.54059     13.03250         0.275900      0.107597     -0.142832
Pb      15.28881     11.73517     12.97431         0.046346     -0.047513      0.305760
Pb       7.59607      3.81002      4.33365         0.294037      0.416700      0.168708
Pb       7.59844      3.97131      0.02851        -0.253247     -0.172758     -0.286730
Pb       7.54480      0.18398      4.35708         0.267048     -0.712702     -0.316453
Pb       7.62939     15.41861     17.40040        -0.187901     -0.034032     -0.081254
Pb       7.76269      3.93130      8.68854        -0.235137      0.206624     -0.492749
Pb       7.75623      0.19351      8.74278        -0.499980     -0.444201     -0.572262
Pb       7.73640      3.89017     13.03055        -0.231943      0.243255     -0.167066
Pb       7.69469     15.35663     13.09840        -0.649167     -0.057022     -0.120393
Pb       7.56842      7.74253      4.30302         0.479274      0.393531      0.090421
Pb       7.72057      7.71696      0.10297         0.158226      0.058550      0.223725
Pb       7.62496      7.91181      8.55692         0.378784     -0.426921      0.157535
Pb       7.63255      7.73712     13.03250         0.180789     -0.102190     -0.152265
Pb       7.63454     11.71103      4.39673         0.061626     -0.457520     -0.294349
Pb       7.65629     11.61791      0.03637         0.345969     -0.032156      0.656122
Pb       7.62948     11.68020      8.60393         0.482256      0.023625      0.183911
Pb       7.67682     11.49218     13.00991         0.166500      0.647236      0.083769
Pb      11.55947      3.91981      4.21993        -0.327209      0.324925      0.223601
Pb      11.38432      3.87276     17.32479         0.669948      0.431881      0.049313
Pb      11.45807      0.20412      4.36484         0.211353     -0.377119      0.070380
Pb      11.45005     15.42518     17.33845         0.164174      0.113442      0.431670
Pb      11.51955      3.97770      8.71245        -0.103151      0.506543      0.144743
Pb      11.57760      0.20239      8.70725        -0.201942     -0.368767     -0.173764
Pb      11.43478      3.81336     13.04684         0.372770      0.556820      0.049218
Pb      11.49153     15.41951     13.07985        -0.383563      0.111653      0.312291
Pb      11.59950      7.74788      4.26571        -0.785351      0.281225      0.075711
Pb      11.52374      7.74024      0.00719        -0.191004     -0.013354      0.192441
Pb      11.47659      7.89616      8.53302         0.460406     -0.027302      0.431562
Pb      11.37451      7.75064     13.08221         0.520023      0.192992     -0.019057
Pb      11.51348     11.81090      4.24075         0.009688     -0.805079      0.285972
Pb      11.54029     11.48037      0.04104        -0.359121      0.684781      0.701188
Pb      11.48669     11.65573      8.68258        -0.336391      0.043150     -0.596111
Pb      11.50273     11.55741     13.06577        -0.104971      0.220755      0.093729
Ti       1.97301      1.99083      2.30834        -0.893312      0.324110      0.445916
Ti       1.89236      1.92753     15.26357         0.556063      0.090777      1.681761
Ti       1.92455     13.51069      2.40273         0.084431     -0.596866     -0.555838
Ti       1.82466     13.41118     15.37266         1.183177      1.023137      0.173836
Ti      13.43657      2.07619      2.27796         0.612282      0.305061      0.344960
Ti      13.42375      2.09121     15.36795        -0.248579      0.153099     -0.337674
Ti      13.49907     13.64683      2.33120        -0.361425      0.287117      1.407979
Ti      13.31039     13.55971     15.45865         0.826026      0.756926      1.023799
Ti       1.85860      1.96607      6.75716         0.570779      0.542719      1.578961
Ti       1.90673     13.48679      6.67099        -0.482038     -0.256111      1.883489
Ti      13.42663      2.14107      6.75890         0.151405     -0.022593      0.220475
Ti      13.37056     13.62640      6.70252         0.421437      0.469996     -1.261670
Ti       1.88864      1.95015     11.16140         0.925148     -0.348842     -1.000287
Ti       1.98300     13.35125     11.20471        -0.479255      1.739430     -1.058117
Ti      13.43118      2.05935     11.14615        -0.602329      0.757725     -0.788458
Ti      13.38894     13.60698     11.16510         0.872163     -1.000418     -0.272581
Ti       1.96588      5.87234      2.34282        -1.925066     -0.870983      0.866217
Ti       1.84141      5.79942     15.24722         0.926591      0.140022     -0.553814
Ti      13.46989      5.95333      2.26176         0.043410     -0.817664     -0.003617
Ti      13.40589      5.96284     15.34300        -0.187011     -0.308692      0.571699
Ti       1.82022      5.79759      6.70350         1.020299      0.008125     -0.737062
Ti      13.39676      5.93466      6.61540         0.374738      0.491719      1.070606
Ti       2.00335      5.80940     11.13601        -0.424800     -0.188474     -1.175544
Ti      13.45342      5.97086     11.08799         0.184832      0.297217     -0.441033
Ti       1.90150      9.65896      2.40042         0.476019      0.419775     -0.584629
Ti       1.88694      9.62872     15.36654         1.252348     -0.546881      1.552807
Ti      13.47718      9.74479      2.36771        -0.529659      0.803550      1.311487
Ti      13.46179      9.75857     15.51439        -0.167966     -0.195404     -0.481311
Ti       1.84837      9.61708      6.55648         0.063509      0.215508      0.579005
Ti      13.38972      9.83189      6.55695        -0.463215     -0.411726      3.460249
Ti       1.94833      9.61258     11.09033         0.093141     -0.368153      0.928146
Ti      13.42966      9.77086     10.99569         0.242109     -0.416970     -0.229597
Ti       5.73877      1.94498      2.26794        -0.461363      0.089568     -0.718439
Ti       5.72062      1.97205     15.39185         0.301747     -0.514777     -0.231227
Ti       5.74902     13.46975      2.31786         0.120096      0.435965      0.369524
Ti       5.76594     13.42001     15.41409        -0.541250      1.747894     -0.060773
Ti       5.68922      2.01435      6.74040         0.606138      0.279597      0.836268
Ti       5.71868     13.57556      6.78210         0.357398      0.034440     -0.101968
Ti       5.82078      2.04903     11.08703        -0.954037     -0.769386      1.440473
Ti       5.78364     13.50917     11.01089        -0.296349      0.489516      0.499321
Ti       5.71515      5.78268      2.49431         0.770183      0.157928     -1.343649
Ti       5.70516      5.86773     15.46918         0.041676     -0.376818      1.164824
Ti       5.75124      5.86357      6.75034        -0.325388     -0.732473     -1.824501
Ti       5.81964      5.88951     10.95198        -0.189685     -0.170153      0.127730
Ti       5.75601      9.69818      2.29364         0.546609      0.033772      1.809653
Ti       5.84939      9.65942     15.52604        -1.021609     -0.155742      1.348996
Ti       5.69553      9.72912      6.69772         1.037503      0.191850     -1.297008
Ti       5.91744      9.69547     10.90929        -1.901223      0.018386      1.083452
Ti       9.61852      2.00989      2.27168        -0.509535     -0.301395      2.511841
Ti       9.53120      1.99918     15.46004         0.105450     -0.773952      0.427213
Ti       9.63022     13.56026      2.38501        -0.670973     -0.166909      0.312847
Ti       9.52997     13.44725     15.48592         1.531533      0.091048     -1.564126
Ti       9.64348      2.06438      6.72639        -0.902261      0.732767     -0.635930
Ti       9.55147     13.58787      6.69543         0.555811     -0.240681      2.441088
Ti       9.57040      1.96768     11.05623         0.574211      0.672654      1.043938
Ti       9.61053     13.52316     11.11794        -0.976128     -0.361944      0.045570
Ti       9.55305      5.82408      2.37709         0.624270      1.084041      0.860054
Ti       9.53149      5.84851     15.41353         0.430686      0.261553      0.415624
Ti       9.59848      5.95035      6.71486        -0.447796     -0.816468     -0.906009
Ti       9.67391      5.91931     11.04375        -0.732472     -0.409215     -0.228985
Ti       9.59472      9.67439      2.41827         0.179481      0.052963     -0.254060
Ti       9.60573      9.67669     15.56646        -0.260714      0.045989      1.671115
Ti       9.56372      9.74779      6.57675         0.135201      0.612708     -1.099577
Ti       9.64760      9.70047     10.99997        -0.027693     -0.006130      1.986257
O       1.99341      2.02168      0.60412        -0.084854     -0.259828     -1.657475
O       1.91703      1.83540     13.56509        -0.461828      0.092821     -1.720835
O       1.99105     13.59332      0.64961        -0.469930     -0.167577     -0.334766
O       1.79697     13.40253     13.62721         0.174949     -0.066148     -0.460335
O      13.51222      2.03613      0.54848        -0.182346      0.394364     -0.828287
O      13.36552      2.14019     13.58505         0.341943     -0.193994     -0.695189
O      13.51360     13.72047      0.63055        -0.030843      0.114445     -1.789130
O      13.32557     13.51238     13.74450         0.056019      0.127553     -1.845641
O       1.90696      2.10590      5.06321         0.139229     -0.378798     -2.160257
O       1.98793     13.50976      5.00759        -0.145020      0.131558     -2.565657
O      13.35269      2.06900      5.04198         0.038292      0.106141     -1.263004
O      13.38002     13.77346      4.95092        -0.050589     -0.397944      0.103964
O       1.80322      1.85214      9.35421         0.355008      0.342813      0.409001
O       2.02049     13.38086      9.44223        -0.006728     -0.172328     -1.004540
O      13.49378      2.16774      9.37136        -0.107956     -0.317703     -0.224720
O      13.47765     13.56747      9.45534        -0.574597     -0.044223     -2.079676
O       1.87433      5.85478      0.64507         0.420884     -0.343746     -2.196186
O       1.86315      5.86794     13.45614         0.296921     -0.395673      0.907673
O      13.60613      5.93949      0.51590        -0.451875     -0.193366     -0.646666
O      13.46035      5.90724     13.60611         0.302644      0.368761     -0.879641
O       1.77462      5.82217      4.88787        -0.067347     -0.002950      0.597680
O      13.47612      6.03351      4.87276         0.078004     -0.221186     -0.437819
O       2.06025      5.74086      9.32378        -0.362416      0.101081      0.013487
O      13.40025      6.01260      9.32757         0.075922     -0.241759     -0.075945
O       1.93940      9.66093      0.65114         0.112358      0.183692     -0.958816
O       2.08191      9.57365     13.66729        -0.466359      0.257915     -1.046007
O      13.48980      9.81499      0.67654        -0.298286     -0.016017     -2.215846
O      13.49565      9.75002     13.78309        -0.323449      0.008616     -0.554333
O       1.91033      9.60818      4.82469         0.005157     -0.204425     -0.774265
O      13.36019      9.69541      4.92855         0.420814      0.063452     -4.437313
O       1.85469      9.61221      9.39325         0.108467      0.296046     -1.549753
O      13.46285      9.73512      9.21445        -0.324844      0.474433      0.354263
O       5.57114      2.00718      0.50076         0.401083      0.111290      0.412863
O       5.80560      1.93289     13.62650         0.184779      0.347119     -0.247090
O       5.71874     13.41180      0.56293         0.150519      0.252704      0.139321
O       5.77127     13.45920     13.67717         0.438419     -0.327354     -0.851225
O       5.68048      1.99972      4.99669         0.247213      0.113454     -0.921451
O       5.80231     13.62407      5.04362         0.085048     -0.081063     -0.972174
O       5.84426      2.01488      9.37808         0.006723      0.025847     -1.182512
O       5.70972     13.55980      9.27682         0.088611     -0.240938     -1.244250
O       5.70562      5.79171      0.71430        -0.414282     -0.178573     -0.768012
O       5.80019      5.87745     13.78147         0.022590      0.235952     -2.309918
O       5.73871      5.83430      4.89701         0.159082      0.151814      0.149413
O       5.68431      5.92140      9.22126         0.321810     -0.118402     -0.928226
O       5.62410      9.82914      0.58726         0.343891     -0.422429     -1.425237
O       5.93258      9.66730     13.82075        -0.002939     -0.151476     -1.827291
O       5.83915      9.73518      4.93223        -0.380236     -0.422618     -0.027743
O       5.86631      9.69279      9.18672        -0.035071     -0.094975     -1.300459
O       9.66350      2.01447      0.58116         0.018273      0.140693     -2.035408
O       9.66871      1.97469     13.73843        -0.507937      0.125438     -1.219260
O       9.65177     13.54667      0.67333        -0.057159      0.268669     -1.622574
O       9.66558     13.39492     13.66123        -0.340218      0.249425      0.851174
O       9.71984      2.09755      4.97045        -0.241496      0.046596     -0.684083
O       9.58817     13.60919      5.03131        -0.133341      0.062601     -3.219499
O       9.60008      2.19597      9.34571        -0.212332     -0.630036     -1.364236
O       9.49046     13.53726      9.37783         0.677908      0.172128     -0.395703
O       9.67199      5.86247      0.66568        -0.116841     -0.405581     -2.368081
O       9.53427      5.95470     13.68312        -0.043400     -0.150916     -0.725742
O       9.54733      5.93534      4.96786         0.203641     -0.059217     -0.719172
O       9.68259      5.91928      9.30860         0.054395     -0.154733     -0.941830
O       9.70396      9.62277      0.62205        -0.036319      0.352593     -0.081926
O       9.51179      9.67879     13.87375         0.030669     -0.095674     -2.074783
O       9.43530      9.69902      4.80860         0.369288     -0.046915      0.007927
O       9.66477      9.76273      9.33283        -0.125555     -0.022125     -2.615661
O       3.81250      1.90626      2.75514         0.801972      0.217597      0.288378
O       3.82942      1.83186     15.62896        -0.615239      0.497909      0.367390
O       3.79111     13.44966      2.84383         1.332398      0.338999      0.013700
O       3.89638     13.51934     15.66077        -1.085070     -0.031608      0.463986
O       0.04601      2.02834      2.76313        -0.515848     -0.920622      0.028370
O       0.03269      1.87496     15.70109        -0.784667      0.444112      0.180155
O       0.01788     13.51532      2.89675        -0.120041     -0.354261     -0.354395
O      15.35181     13.67886     15.84000        -0.595371      0.057382     -0.016017
O       3.86793      2.03772      7.17190        -0.753093     -0.533745      0.199155
O       3.85083     13.46559      7.08871        -0.833171      0.012093      0.502305
O      15.35838      2.23022      7.06966        -0.668412     -0.405006      0.516450
O      15.28998     13.65228      7.06096         0.402239     -0.066302      0.425095
O       3.83574      2.09155     11.60467         0.394094     -0.639484     -0.617763
O       3.91630     13.47695     11.48806        -0.342155     -0.629471      0.574861
O      15.35449      1.98854     11.45304        -0.814047      0.586490      0.531238
O      15.32386     13.56483     11.39473         0.087652      0.166845      1.088625
O       3.76193      5.83042      2.77607         1.046822      0.217297      0.262590
O       3.79621      5.87501     15.72054        -0.214815     -0.066155      0.499481
O      15.35237      5.92780      2.63411         0.193147      0.250973      0.851417
O       0.00000      5.80213     15.74567         0.073452     -0.695904     -0.066411
O       3.75567      5.85103      6.91276         0.619650      0.378615      0.831576
O      15.35325      6.00051      7.20992        -0.881090     -0.049033     -0.351265
O       3.89232      5.71449     11.34262         1.088678      0.141860      1.007084
O       0.13213      5.67068     11.38414        -2.200986      0.074042      0.316316
O       3.92230      9.67706      2.73378        -1.131682     -0.123754      0.444304
O       3.90152      9.72538     15.73995        -1.074972     -0.515192      0.457730
O      15.35119      9.86433      2.69968        -0.062468      0.252273      0.669790
O       0.01203      9.61053     15.80328         0.470915      0.283007      0.117814
O       3.79879      9.62328      7.00470        -0.056266      0.301700      0.173673
O      15.30546      9.87694      6.91734         0.456626     -0.120370      0.365430
O       3.87111      9.61016     11.30666         0.851315      0.339654      0.724104
O      15.35527      9.90534     11.48863         0.394217     -0.535607      0.080640
O       7.64026      2.14868      2.61609        -0.061370     -0.512936      0.219447
O       7.62574      2.01912     15.89351         0.654332      0.150604      0.098881
O       7.69424     13.59463      2.75363        -0.848602     -0.495716      0.267563
O       7.75173     13.45062     15.82693        -1.364788      0.130737      0.436124
O       7.71641      2.11980      7.05945        -0.577215      0.039242      0.488261
O       7.73659     13.54192      7.18625        -1.206478      0.222916      0.068540
O       7.72249      1.96206     11.55110        -0.086268      0.103668     -0.081769
O       7.62887     13.51700     11.43679         1.349351      0.112087      0.611820
O       7.66911      5.84024      2.55502        -0.760526      0.048538      1.085042
O       7.63831      5.75314     15.80247         0.656840      0.309268      0.624239
O       7.67926      5.80221      7.00156        -0.221408      0.523624      0.736114
O       7.74823      5.89931     11.35963        -0.593847     -0.127873      0.459291
O       7.66362      9.73736      2.68548        -0.209134     -0.509362     -0.117436
O       7.65786      9.71277     16.08884         0.783148     -0.297743     -0.280107
O       7.70948      9.84754      6.97541        -0.875625     -0.880233      0.921163
O       7.68959      9.59502     11.49363         0.727464      0.167704     -0.131514
O      11.53194      1.91019      2.71618        -0.471263      1.335744     -0.198851
O      11.51420      2.09516     15.69139        -0.214458     -0.117638      0.930145
O      11.53192     13.64370      2.77788         0.100734      0.301507     -0.005616
O      11.47710     13.57814     15.93607         0.134058     -0.186731     -0.129267
O      11.49207      2.10746      7.20451         0.973330     -0.238518      0.338796
O      11.45695     13.62142      7.08552         0.644891      0.275447      0.837088
O      11.47890      1.96075     11.38215         0.565504      0.169651      0.572422
O      11.49000     13.53021     11.55814        -0.066061     -0.202199     -0.061328
O      11.55039      5.92043      2.68039         0.181782     -0.126877      0.301224
O      11.53625      5.99655     15.63050        -0.805056     -0.434576      0.697739
O      11.54104      5.98955      7.04758         0.076587     -0.031362      0.016518
O      11.50952      5.95628     11.51154         0.538457      0.287142      0.251971
O      11.55609      9.72276      2.86496        -0.100842      0.305052     -0.394767
O      11.51926      9.75050     15.94965         0.479232     -0.373920     -0.337702
O      11.48078      9.81418      6.90996        -0.161044     -0.414948      0.784497
O      11.53275      9.67659     11.47955         0.232346      0.083807      0.053415
O       1.94237      3.87810      2.65703         0.254467     -0.007608      0.569405
O       1.92018      3.89614     15.57249         0.044967     -0.370133      0.422619
O       1.97937     15.35796      2.82521        -0.732645      1.323324     -0.046098
O       1.90937      0.03185     15.76166        -0.299651     -0.446464      0.017367
O      13.45853      4.03227      2.69616        -0.444063     -0.685403      0.151249
O      13.35856      4.05146     15.73577         0.704356     -0.327602      0.475806
O      13.43329      0.24215      2.74576         0.598322     -0.195953      0.252939
O      13.41783      0.23285     15.66454         0.020461     -0.737995      0.576472
O       1.94189      3.90005      7.11640        -0.317063      0.203001      0.408193
O       1.90169      0.02970      7.08312         0.051700      0.238919      0.364591
O      13.43436      4.04963      6.98354        -0.199924      0.483377      0.491607
O      13.45014     15.55725      7.12042        -0.386551      0.350071      0.792027
O       1.91468      3.84597     11.48709        -0.197800     -0.824182      0.274671
O       1.95499     15.28022     11.45184        -0.088402      1.261518      0.646518
O      13.32397      4.09021     11.41284         0.717550     -1.520165      0.412554
O      13.34754     15.46889     11.34624         0.320928      1.254991      0.919042
O       1.81803      7.79608      2.56858         0.577976     -1.483287      1.060467
O       1.88048      7.65819     15.76659         0.263543      1.187605      0.045276
O      13.50807      7.85622      2.66055        -0.285628     -0.315388      0.261396
O      13.52737      7.86474     15.91822        -0.578244      0.103904     -0.430020
O       1.87898      7.77781      7.16576        -0.156527     -0.518077     -0.513995
O      13.41504      7.93374      7.08081         0.080336     -0.914329     -0.333976
O       1.99827      7.66633     11.52709        -0.201709      1.127934     -0.027945
O      13.58997      7.88377     11.46467        -0.481636     -0.084604      0.164685
O       1.96014     11.54866      2.76071        -0.523915      0.519533      0.476335
O       1.88117     11.61552     15.90193         0.403737     -1.463204     -0.601682
O      13.44160     11.76831      2.68472         0.037260     -0.343484      0.513277
O      13.42783     11.74870     15.82716         0.072406     -1.220719      0.538663
O       1.83834     11.51537      6.89692         0.497390      0.145606      0.927372
O      13.34134     11.70127      7.02095         0.201948      0.772338      0.403294
O       2.03208     11.55114     11.53857        -0.264919     -1.735729      0.469369
O      13.42503     11.61213     11.43258        -0.505016      0.488227      0.516811
O       5.67915      3.89902      2.70453        -0.150150     -0.605152      0.499504
O       5.64232      3.87335     15.75293         0.162435      0.654389      0.551280
O       5.85410     15.41752      2.66027        -0.624768      0.495645      0.173547
O       5.90073     15.42575     15.78174        -0.262965     -0.610543      0.311092
O       5.70690      3.99250      7.11990         0.229000     -0.477536      0.219872
O       5.79671      0.08834      7.09677         0.074876      0.829555      0.559526
O       5.89998      3.94764     11.42498        -0.110676      0.292520      0.385786
O       5.74547     15.40289     11.38969         0.131424      0.971931      0.457899
O       5.71437      7.74056      2.68181         0.108113      0.265458      0.336659
O       5.82258      7.74485     16.01246        -0.243811      0.107689     -0.230859
O       5.80373      7.77795      7.02309         0.008067      0.273773      0.346756
O       5.76758      7.77892     11.34317         0.108620     -0.374504      0.605739
O       5.78983     11.60404      2.82510        -0.172853      0.395798     -0.171647
O       5.72467     11.62451     15.91687         0.862221     -1.077504     -0.273584
O       5.77009     11.58987      6.98228        -0.249552      0.518056      0.813607
O       5.90964     11.56693     11.29441        -0.592064     -0.693841      0.628685
O       9.52099      3.97773      2.72426         0.922007     -1.476888      0.309335
O       9.53241      3.86043     15.83623         0.404812      1.649830      0.192659
O       9.45913     15.48181      2.72869         0.526179      0.998247      0.242715
O       9.58022     15.40445     15.80796        -0.146734      0.447261      0.330787
O       9.64942      4.02415      7.09503         0.174830     -0.026489      0.559276
O       9.55226      0.21128      7.06791         0.337927     -0.711209      0.676219
O       9.69637      3.92330     11.46957        -0.681156      0.039755      0.205053
O       9.59063     15.42038     11.56078         0.041448      0.236858     -0.290397
O       9.62373      7.77846      2.56907        -0.266351     -0.019569      1.132214
O       9.64633      7.74505     15.91365        -0.767647     -0.241524      0.058915
O       9.53300      7.87540      7.04178         0.141563     -0.485213      0.415281
O       9.63311      7.82669     11.39994        -0.115469     -0.405694      0.688211
O       9.54345     11.63695      2.65305         0.606950      0.213268      0.750566
O       9.58651     11.57674     15.94180         0.276419      0.223386      0.104710
O       9.61407     11.61954      7.02130         0.094271      0.883353      0.538996
O       9.58461     11.57082     11.43959         0.050682      0.296154      0.455100
