  # total energy = -7881.19711079 
CRSYTAL
PRIMVEC
    15.3600000000000000    0.0000000000000000    0.0000000000000000
     0.0000000000000000   15.3600000000000000    0.0000000000000000
     0.2400000000000000    0.0000000000000000    17.440000000000000
PRESSURE
-0.589566 -0.809313 -4.24364 0.059898 -1.23269 0.024067
PRIMCOORD
320 1
Pb       3.80695      3.76618      4.34565         0.701598      0.242652      0.053366
Pb       4.01797      3.81942     17.42015        -0.061763      0.007749     -0.507420
Pb       3.85571      0.07095      4.27174         0.154410     -0.209649     -0.394679
Pb       4.14635     15.30404     17.41832        -0.144187      0.105760     -0.400298
Pb       0.06893      3.91182      4.36552        -0.520104     -0.287198     -0.373373
Pb      15.48999      3.80643     17.38116         0.443582     -0.000749     -0.067187
Pb      15.41356     15.26152      4.27974        -0.069349      0.255710     -0.293216
Pb       0.38049     15.35940     17.40946        -0.694197      0.309534     -0.342360
Pb       3.78213      3.88068      8.81535         0.432270     -0.182989     -1.557631
Pb       4.01547      0.02049      8.59137        -0.202071     -0.106165     -0.369385
Pb      15.43320      3.80710      8.79515         0.024516     -0.276376     -1.279899
Pb       0.15002     15.34464      8.68882        -0.308362      0.254076     -0.495533
Pb       4.07720      3.72392     13.03533        -0.195051      0.567019     -0.105137
Pb       3.96822     15.33017     12.93858        -0.135628     -0.187777     -0.002688
Pb      15.45764      3.73923     13.10999         0.013847      0.192451     -0.729056
Pb      15.47085     15.23742     13.05483         0.228364      0.155799     -0.518524
Pb       3.92720      7.68845      4.34258        -0.103218     -0.041039      0.202033
Pb       3.96773      7.79634      0.04357        -0.530917     -0.456711     -0.218863
Pb       0.06204      7.71557      4.31140        -0.074031     -0.017623     -0.150381
Pb       0.02771      7.57655      0.08916         0.269688      0.165534     -0.862799
Pb       3.96109      7.68683      8.72105        -0.014558      0.118517     -0.747225
Pb       0.12661      7.64886      8.67346        -0.144551      0.115845     -0.358232
Pb       3.91084      7.59917     13.24760         0.492398     -0.342893     -1.219722
Pb       0.27966      7.73586     13.05030        -0.398281     -0.255072     -0.787944
Pb       3.94747     11.49309      4.36321        -0.099841      0.100182     -0.366754
Pb       3.96605     11.50031     17.29788         0.263141      0.032601      0.033965
Pb      15.27318     11.44083      4.34471         0.597829      0.081323     -0.222237
Pb      15.55231     11.50513     17.43779         0.020610      0.000498     -0.471531
Pb       3.95036     11.46753      8.62986        -0.179224     -0.073620     -0.116949
Pb      15.47286     11.62217      8.69224        -0.096072     -0.704691      0.101954
Pb       4.00965     11.53628     13.04872         0.130437     -0.114018     -0.936692
Pb      15.45566     11.45050     13.06424         0.070667      0.025091     -1.350382
Pb       7.72078      3.84075      4.39680         0.031665     -0.059150     -0.359212
Pb       7.76477      3.70904     17.38321         0.404880      0.213592     -0.045382
Pb       7.62620     15.26198      4.38669         0.149257      0.122354     -0.492725
Pb       7.65598     15.33436      0.05136         0.113207      0.027876     -0.895922
Pb       7.82320      3.77428      8.75827        -0.006185      0.104631     -0.677966
Pb       7.69728      0.03331      8.69842         0.434581     -0.125780     -0.413285
Pb       7.86375      3.93749     12.98648        -0.136606     -0.311512     -0.299775
Pb       7.91557     15.33593     13.03840        -0.163961      0.014473      0.047948
Pb       7.70886      7.54790      4.35886        -0.020935      0.264708     -0.159410
Pb       7.94055      7.73591     17.36889        -0.196482     -0.220063      0.147384
Pb       7.73136      7.72351      8.67773         0.065963     -0.457621      0.128895
Pb       7.84229      7.69464     13.07420        -0.286380     -0.303948     -0.797702
Pb       7.83363     11.50528      4.40595        -0.350820      0.104177     -0.160405
Pb       7.88973     11.58093     17.41058         0.108679     -0.065852     -0.390174
Pb       7.73944     11.44829      8.63686         0.199884      0.162779      0.078316
Pb       7.82733     11.53543     13.02388        -0.429218     -0.109373     -0.314495
Pb      11.59048      3.90166      4.36176        -0.371084     -0.351389     -0.188844
Pb      11.77171      3.85373     17.42683        -0.483903     -0.330015      0.152881
Pb      11.53095      0.05775      4.32650         0.038474     -0.273172      0.095038
Pb      11.46185      0.07310      0.11828         0.176072      0.075818     -1.186104
Pb      11.68435      3.82363      8.76059        -0.176559     -0.561016     -0.836829
Pb      11.65429      0.03261      8.66821        -0.112984      0.209389     -0.493474
Pb      11.63468      3.69904     12.99424         0.257854      0.217713     -0.138712
Pb      11.67382      0.00633     13.04040        -0.246274     -0.080636     -0.002782
Pb      11.50703      7.62692      4.22401        -0.036707     -0.161820     -0.077620
Pb      11.63871      7.63736     17.36557        -0.099217      0.076033      0.044744
Pb      11.56227      7.66146      8.78485         0.314051     -0.174737     -0.743631
Pb      11.78651      7.63989     12.98977        -0.071674      0.107935      0.458679
Pb      11.62983     11.44094      4.33818        -0.371128      0.373689      0.056829
Pb      11.75758     11.59174     17.43523        -0.330095      0.130280     -0.140246
Pb      11.53553     11.48318      8.80008         0.240009      0.132766     -0.581241
Pb      11.68635     11.40958     13.06292         0.201318      0.171335     -0.520111
Ti       1.90991      1.97970      2.25052        -0.211790     -0.511454      0.501215
Ti       2.17129      1.90076     15.29456        -0.121831      0.276782      0.295556
Ti       1.91758     13.39487      2.27811         1.350128     -0.286995      0.086988
Ti       2.10018     13.37848     15.24915         0.065175      1.475391      1.307714
Ti      13.44782      1.90620      2.30902         0.291907      0.281573      0.382752
Ti      13.62108      1.96016     15.37687         0.016783     -1.278481     -0.826312
Ti      13.49113     13.38646      2.26013        -0.326623      0.773497     -0.862599
Ti      13.73803     13.48452     15.33488        -1.574163      0.915041      0.319469
Ti       1.96794      1.82682      6.55063         0.351450      1.648947      0.555323
Ti       1.93996     13.43129      6.60240         1.260783     -0.122445     -0.415966
Ti      13.57265      1.86448      6.48721        -0.601574      0.470639      2.253072
Ti      13.55201     13.38384      6.71243        -1.181709      0.104557     -0.417697
Ti       2.04525      1.86145     10.89567        -1.137997      0.228249     -0.026633
Ti       2.05695     13.40905     10.84340        -0.857016     -0.013874      0.634028
Ti      13.60253      1.83377     11.01646        -0.890537      0.784363     -1.129096
Ti      13.47467     13.44794     10.92176         1.545002     -1.256745     -0.032055
Ti       1.95883      5.76033      2.34998         0.517506      0.701956     -1.093947
Ti       2.13605      5.76278     15.41957         0.267788     -0.616375      2.001695
Ti      13.44302      5.70358      2.29933        -0.571068     -0.594266      0.333524
Ti      13.57701      5.76654     15.34773         0.785893     -0.528438     -1.287383
Ti       1.96930      5.74224      6.63176         0.499859     -0.511296      1.399215
Ti      13.46979      5.71476      6.66745         0.544120     -0.262534     -0.115115
Ti       2.10449      5.69859     10.93796        -0.168678      0.411196      0.437539
Ti      13.58650      5.73077     10.92104         0.678467      0.125517     -0.058175
Ti       1.89833      9.58935      2.26764         0.445254      0.038852     -0.686616
Ti       2.05959      9.52584     15.32176         0.254508      0.307821     -0.038080
Ti      13.38750      9.54816      2.18188         0.208628      0.247277     -0.270989
Ti      13.59455      9.62617     15.46027         0.416845     -0.134172     -0.829767
Ti       1.98176      9.61254      6.67527         0.124247      0.279563     -0.052600
Ti      13.55472      9.57185      6.70766        -0.042919     -0.135096      1.182469
Ti       2.10522      9.59605     10.92001        -0.461363      0.049164     -0.303354
Ti      13.54394      9.53291     11.00317         1.015402      0.681662      1.732044
Ti       5.79432      1.92401      2.28475        -0.292420     -0.126502      0.359745
Ti       5.96236      1.88215     15.30073        -0.173156     -0.436474     -0.139079
Ti       5.83993     13.42430      2.22156        -0.784803      0.171536      0.655793
Ti       5.92400     13.38296     15.35591         1.011535      0.388749     -0.259123
Ti       5.85512      1.91248      6.60835        -0.582547      0.564060     -0.730281
Ti       5.84350     13.39285      6.64086         0.158321      0.310715      0.540686
Ti       5.83861      1.83114     11.01071         0.911488      0.554125     -0.763064
Ti       5.90036     13.40412     10.91277        -0.403540      0.263756      0.996899
Ti       5.74791      5.75116      2.30822         0.283487     -0.034186      0.523987
Ti       5.96110      5.76942     15.34063        -0.365818     -0.805129     -0.596054
Ti       5.89745      5.71972      6.68978        -0.984083     -0.850993     -0.619394
Ti       5.92818      5.71646     10.88366        -0.478652      0.434046      1.372989
Ti       5.72195      9.61988      2.36331         0.756312     -0.638991     -0.798280
Ti       5.99536      9.47891     15.29435        -0.603638      1.376306     -0.864719
Ti       5.90678      9.53297      6.65460        -1.373665      0.363393     -1.332635
Ti       5.87863      9.50179     11.06279        -0.241451     -0.047928     -0.888996
Ti       9.57915      1.88773      2.32497         0.051027      0.263723     -0.530406
Ti       9.78581      1.92657     15.41054        -0.283683     -0.365450     -0.096165
Ti       9.73228     13.39176      2.31337        -1.217781      0.151951     -0.494674
Ti       9.86998     13.41588     15.38531        -0.884828      1.185318      0.465234
Ti       9.69551      1.88401      6.61930         0.474691      0.678464     -0.770776
Ti       9.70678     13.38592      6.77571         0.489473      0.393941     -1.153220
Ti       9.67092      1.86538     11.02513         0.950633     -0.189011     -0.073129
Ti       9.69998     13.34989     10.98945         0.360954      0.362350     -0.287383
Ti       9.53753      5.67539      2.15699         0.676689      0.213156      2.216623
Ti       9.80766      5.71272     15.34513        -0.942329     -0.149994     -0.209560
Ti       9.71154      5.70687      6.68098        -0.622076     -0.732820      0.443860
Ti       9.78385      5.76537     10.97771        -0.799789     -0.535310     -1.529610
Ti       9.50282      9.57685      2.33974         0.196527     -0.248860     -0.733773
Ti       9.81058      9.61760     15.32333        -0.233853     -0.403558     -0.246992
Ti       9.75855      9.47900      6.63833        -0.139799      1.227498     -0.455001
Ti       9.71822      9.52612     10.98680        -0.358350      0.388468      0.005625
O       1.88950      2.01913      0.47634         0.026100     -0.296112      0.648352
O       2.15501      1.92576     13.49953         0.047044     -0.131069      0.661847
O       2.16272     13.39782      0.48797        -1.247499      0.163594      0.632196
O       1.99440     13.55910     13.51493         0.302637     -0.578899      0.291825
O      13.59704      2.00842      0.51725        -0.639781     -0.417447      0.364858
O      13.62532      1.91861     13.48722        -0.149906      0.272009      1.479537
O      13.45783     13.50536      0.44840         0.140575     -0.556087      1.215055
O      13.64813     13.55369     13.53962        -0.010138     -0.377947      0.616633
O       2.03528      1.81897      4.75771        -0.268347      0.379626      0.145603
O       1.88409     13.40350      4.75280         0.090027      0.013675      1.500906
O      13.54252      1.96212      4.75757         0.057671     -0.296988     -0.425157
O      13.56474     13.31720      4.91297        -0.058737      0.133824      0.356731
O       1.92911      1.97300      9.07154         0.332979     -0.582815      1.746233
O       2.07231     13.53963      9.02883        -0.266000     -0.151511      1.409125
O      13.34046      1.91264      9.20280         0.894311     -0.238280      1.560287
O      13.52835     13.30265      9.12539         0.172024      0.429636      0.875168
O       2.06548      5.69115      0.54093        -0.461291      0.681909      0.628284
O       2.19995      5.86526     13.72584        -0.143659     -0.193220     -1.979504
O      13.38329      5.51614      0.53390         0.213982      0.945581      0.197223
O      13.62599      5.63557     13.49496        -0.257863      0.287677      2.052114
O       1.92253      5.73367      4.88460        -0.046029     -0.009974     -0.456612
O      13.45403      5.62996      4.82736         0.277734      0.396607      1.185683
O       2.09364      5.64698      9.13477        -0.191222      0.308619      0.845133
O      13.54752      5.82462      9.05473        -0.134485     -0.476670      2.356574
O       1.97599      9.44330      0.43295        -0.449246      0.573628      1.180589
O       1.87644      9.56683     13.48664         0.827764     -0.063055      1.659814
O      13.41605      9.64677      0.37404         0.140089     -0.253477      0.803443
O      13.54353      9.63177     13.62879         0.230587     -0.172247      1.302412
O       1.78374      9.77362      4.88039         0.571412     -0.509355      0.782039
O      13.52843      9.53753      4.98158         0.025175      0.120987     -1.396207
O       2.12144      9.56721      9.07768         0.039721      0.021544      1.615141
O      13.51723      9.55835      9.32461         0.160911     -0.132661     -2.424529
O       5.78128      1.92239      0.50131        -0.046637     -0.186652      0.187258
O       5.76409      1.87096     13.49169         0.393327      0.076509      0.467758
O       5.78537     13.53157      0.42293        -0.023713     -0.484583      0.652559
O       5.91254     13.29114     13.56790         0.024120      0.480714      0.426057
O       5.75696      1.84526      4.74263         0.259985      0.230871      1.642239
O       5.93219     13.34614      4.87431        -0.070408      0.135722      0.175091
O       5.96962      1.86541      9.19483        -0.412824     -0.286546      1.183171
O       5.83864     13.62884      9.17556         0.021145     -0.554756     -0.208976
O       5.80489      5.81282      0.53315        -0.177045     -0.091292      0.526854
O       5.69259      5.82352     13.52117         1.117110     -0.226968      1.602161
O       5.82709      5.61863      4.86783         0.221247      0.432616      0.941980
O       5.85087      5.72278      9.13018         0.038463      0.101845     -0.076731
O       5.93115      9.45216      0.52817        -0.929680      0.556359      1.088723
O       5.94093      9.53465     13.44090        -0.048252     -0.078021      1.799111
O       5.74448      9.68463      4.82267         0.339899     -0.163819      1.151620
O       5.90313      9.42555      9.21600        -0.224293      0.367695      0.712241
O       9.55814      1.88271      0.48011         0.127377     -0.087184      1.896622
O       9.74546      1.84179     13.58113         0.230527      0.306238      0.656399
O       9.52804     13.23413      0.47448         0.682785      0.561838      1.241971
O       9.73702     13.56079     13.58733         0.288749     -0.555836      0.914176
O       9.68464      2.08810      4.76361        -0.255442     -0.946450      1.621064
O       9.78419     13.40559      4.93477        -0.436792     -0.234139      1.377011
O       9.66547      1.90022      9.25294         0.141978      0.092478      0.392572
O       9.71548     13.21961      9.23280        -0.063634      0.531089      0.123113
O       9.46590      5.78659      0.43251         0.284837      0.015470     -0.294972
O       9.83000      5.70408     13.53820        -0.076036      0.050925      0.757037
O       9.69000      5.62474      4.87898        -0.081140      0.408962      1.071284
O       9.62294      5.75344      9.08523         0.712059      0.173547      2.671782
O       9.48749      9.65271      0.49889         0.020387     -0.146330      1.468692
O       9.91783      9.56509     13.50306        -0.505113      0.033177      1.339274
O       9.74655      9.54239      4.79461        -0.176331      0.139517      1.621988
O       9.65845      9.61007      9.19585         0.049272     -0.426082      0.913640
O       3.88061      1.99092      2.68381        -0.705117     -0.501460     -0.241191
O       4.08817      1.98587     15.77331        -0.372475     -0.404316     -0.170071
O       3.93828     13.44765      2.54968        -0.873399     -0.293554      0.570238
O       4.05721     13.48378     15.76982        -0.845243     -0.264475     -0.422872
O      15.36316      1.96511      2.72585         0.536189      0.058943     -0.228423
O      15.54502      1.95330     15.62465        -0.096346      0.164719      0.200697
O      15.38337     13.28330      2.65029        -0.267951      1.044164     -0.249008
O      15.56178     13.58167     15.75949         0.960761     -0.245354     -0.076658
O       3.93272      1.81837      6.95017         0.107863     -0.087560      0.055271
O       3.94139     13.44160      7.00639        -0.370816      0.414310     -0.347657
O      15.43537      1.92925      7.00504        -0.657648     -0.285261     -0.243360
O       0.12051     13.46134      7.08245        -0.418048     -0.379670     -0.082505
O       3.89004      1.72148     11.26888         1.042886      0.252990     -0.099366
O       3.91007     13.42746     11.31791         0.465126      0.525642      0.086933
O      15.50333      2.02592     11.34584        -0.012591     -0.131662     -0.101464
O      15.46867     13.32018     11.32954         0.169321     -0.083717     -0.198366
O       3.90543      5.84913      2.83907        -0.414155     -0.717452     -0.487589
O       4.09587      5.87678     15.75475        -0.319786     -0.708879      0.345134
O       0.03934      5.73712      2.59991        -0.200847      0.122045      0.284902
O      15.54302      5.68967     15.71430        -0.308222      0.476804      0.275241
O       3.90873      5.75709      7.08458        -0.621991     -0.113688     -0.169692
O      15.42772      5.66723      7.09456         0.114774      0.111644     -0.295703
O       4.09272      5.77826     11.40017        -1.317632      0.090853     -0.487072
O       0.19003      5.63375     11.34581        -0.280913      0.228200     -0.270955
O       3.80902      9.64905      2.69658         0.363239     -0.142159      0.029309
O       4.00218      9.58235     15.74326         0.487589      0.112268     -0.419019
O       0.04440      9.46839      2.61454        -1.483048      0.313389     -0.083355
O       0.23138      9.52248     15.80803        -1.098941      0.087965      0.108767
O       4.00030      9.53334      7.01173        -0.974610      0.412840      0.200044
O       0.11782      9.68064      7.12822        -0.706466     -0.280316      0.058678
O       4.01278      9.58718     11.36802        -0.487428     -0.133384      0.244303
O       0.22282      9.59089     11.33533        -0.658020      0.130485      0.148665
O       7.62853      1.80952      2.66898         1.612197     -0.124050      0.038955
O       7.91319      1.75652     15.79654        -0.638737      1.028321     -0.152701
O       7.81133     13.55289      2.74010        -0.756723     -0.594831     -0.225262
O       7.85766     13.52998     15.84671         0.527059     -0.570179     -0.488541
O       7.77453      1.95581      7.02518         0.157619     -0.247549     -0.125066
O       7.78836     13.46100      7.18625        -0.142318     -0.350193     -0.561959
O       7.85201      2.01133     11.44448        -0.771726     -0.339548     -0.017962
O       7.84515     13.34689     11.35422        -0.441862     -0.002041      0.162051
O       7.74025      5.85160      2.82523        -0.491087     -0.413468     -0.840523
O       7.89533      5.84869     15.67879        -0.324068     -0.166619     -0.332461
O       7.74919      5.69123      7.08167         0.466410      0.247504     -0.348764
O       7.79534      5.74060     11.39052         0.670091     -0.919440      0.145699
O       7.63460      9.43333      2.79032         0.847039      0.758542     -0.160337
O       7.84766      9.52381     15.68909         0.504203      0.127976     -0.426527
O       7.76726      9.55273      7.11559         0.303429      0.195626     -0.610842
O       7.74039      9.60375     11.43503         1.856033      0.480184      0.134683
O      11.58279      1.90364      2.72621        -0.739165      0.134215     -0.525750
O      11.68433      1.95346     15.86817         0.719174      0.164578     -0.306512
O      11.57484     13.28683      2.73936         0.405962     -0.064026     -0.382638
O      11.76067     13.39929     15.88063        -0.591335     -0.130030     -0.691551
O      11.59685      1.86353      6.95046         0.068906      0.065481      0.035158
O      11.63520     13.40683      7.18705        -0.386724     -0.312733     -0.319284
O      11.64044      1.75390     11.47753         0.354132      0.601097     -0.164639
O      11.66101     13.47770     11.30768        -0.306727     -0.059715      0.394247
O      11.49625      5.68798      2.69677        -0.101244      0.330989     -0.470627
O      11.68010      5.72942     15.84254         0.232176     -0.144375     -0.221967
O      11.57662      5.71385      7.12334         0.494628      0.480774     -0.378210
O      11.71149      6.00716     11.41948        -0.305468     -1.328775     -1.219708
O      11.50979      9.65553      2.67284         0.773858     -0.311318     -0.359153
O      11.69286      9.71173     15.80125         0.384184     -0.079538     -0.118553
O      11.62910      9.63993      7.16517        -0.692787     -0.688945     -0.447377
O      11.63197      9.43717     11.30709        -0.599418     -0.135937      0.283570
O       2.01852      3.92757      2.67816        -0.209787     -1.319808      0.330863
O       2.18031      3.78425     15.80914         0.003758      0.833440     -0.399429
O       1.83978      0.03935      2.69075         0.405993     -0.571611     -0.637294
O       2.10125      0.05249     15.83193         0.510266     -0.554246     -0.436156
O      13.39540      3.82099      2.75041         0.635306      0.127666     -0.237267
O      13.55687      3.83557     15.88931         0.335988      0.134901     -0.879923
O      13.34429     15.28967      2.69314         0.841944      0.034735     -0.145631
O      13.57400      0.04617     15.79148         0.144719      0.263258     -0.128789
O       1.95592      3.70522      7.04966         0.468784      1.479733     -0.284630
O       1.86977      0.03252      6.98423         0.480888     -1.625141      0.007753
O      13.44435      3.73455      7.07553         0.261489      0.942710     -0.225153
O      13.51447     15.31946      7.05717         0.274908      0.158385     -0.232142
O       2.17661      3.83687     11.31385         0.182397     -0.465783     -0.052826
O       1.89806     15.31154     11.41945         0.372470      0.308361     -0.876432
O      13.50682      3.80433     11.32614        -0.326882      0.710237     -0.127567
O      13.69742     15.30116     11.31478        -0.200585      0.340005     -0.036525
O       1.94229      7.70008      2.81509         0.169353     -0.305418     -0.227173
O       2.14617      7.71317     15.79518        -0.376645     -0.706549     -0.200151
O      13.45844      7.63591      2.66432        -0.250713      0.652687     -0.347604
O      13.49787      7.61210     15.84056         0.532780      0.722417     -0.360493
O       1.91463      7.74274      7.05403         0.195335     -1.146438     -0.402439
O      13.56235      7.61368      7.09056        -0.080322      0.485276     -0.215723
O       2.05326      7.66546     11.42330         0.274614     -0.609392     -0.260641
O      13.66922      7.67238     11.44585         0.273945     -0.887370     -0.082095
O       1.86195     11.48110      2.60561         0.325170      0.205001     -0.188675
O       2.00981     11.56737     15.71048         0.416736     -0.678148     -0.088009
O      13.50955     11.47355      2.57888        -0.058722     -0.954536      0.148699
O      13.79442     11.60877     15.70943        -0.235079     -1.346489      0.186111
O       2.01241     11.55216      7.20767         0.264994      0.205213     -0.942799
O      13.49726     11.46982      7.04927         0.510164      0.327309      0.124323
O       2.12081     11.49769     11.39464        -0.053873      0.238578     -0.410288
O      13.50015     11.40826     11.47617        -0.109779      1.028681      0.039175
O       5.85987      3.84095      2.66707        -0.159203      0.194146     -0.223338
O       6.03311      3.78008     15.77476         0.003131      1.059075     -0.373715
O       5.75389     15.28208      2.71181         0.145865      0.450368     -0.115100
O       5.99141      0.05237     15.70813        -0.590498     -0.963504      0.157296
O       5.83732      3.80249      7.09854        -0.082026     -0.431425     -0.283761
O       5.94890     15.34668      6.99736        -0.284064      0.050153      0.030492
O       5.83753      3.73096     11.44386         0.096062      0.382329     -0.510196
O       5.95907     15.30475     11.40308        -0.004397      0.266911      0.075755
O       5.67585      7.69805      2.79690         0.481595     -0.152914     -0.136395
O       5.94329      7.63754     15.80378         0.193480      0.883417     -0.429109
O       5.81507      7.64462      6.94017         0.465427      0.110735      0.258904
O       6.05365      7.63911     11.37162        -0.499199     -0.132567     -0.165514
O       5.75761     11.50633      2.76930         0.747582      0.261831     -0.618434
O       5.93157     11.48107     15.65852         0.160203     -0.426118      0.314926
O       5.77721     11.50830      7.12253         0.762584     -0.137164     -0.330286
O       5.82300     11.60517     11.43758         0.238728     -1.142124     -0.225438
O       9.55311      3.79173      2.68170        -0.138164      0.290650     -0.677958
O       9.70397      3.84521     15.88227         0.250296      0.131061     -0.750782
O       9.80751     15.30412      2.73665        -0.446941      0.391921     -0.472654
O       9.83292      0.07363     15.86016         0.522847     -1.807826     -0.066166
O       9.71616      3.83229      7.18760        -0.081307     -0.464143     -0.497148
O       9.77046      0.01198      7.09576        -0.662338     -0.344964     -0.180276
O       9.84891      3.87425     11.43048        -0.096892     -0.186213     -0.218006
O       9.69437     15.32416     11.40013        -0.197700     -0.305166     -0.089294
O       9.68893      7.66767      2.75456        -0.243743     -0.044720     -0.674830
O       9.84016      7.68589     15.80604         0.333455      0.499307     -0.408994
O       9.63058      7.67111      7.07728         0.505845     -0.165112     -0.354464
O       9.60993      7.57547     11.35371         0.138509      1.512169      0.100340
O       9.54486     11.53754      2.80440         0.126243     -1.000369     -0.336002
O       9.69680     11.50236     15.79641         0.275364      0.101262     -0.667224
O       9.59507     11.46383      7.15812         0.432544     -0.205379     -0.673341
O       9.84574     11.43733     11.43279        -0.189877      0.155436      0.075559
