  # total energy = -7883.06504479 
CRSYTAL
PRIMVEC
    15.3600000000000000    0.0000000000000000    0.0000000000000000
     0.0000000000000000   15.3600000000000000    0.0000000000000000
     0.2400000000000000    0.0000000000000000    17.440000000000000
PRESSURE
0.481692 0.57984 -2.1942 -0.06685 -0.740416 0.011966
PRIMCOORD
320 1
Pb       3.88685      3.85535      4.31633         0.182995     -0.097100     -0.299642
Pb       4.02258      3.80509     17.38996        -0.095250     -0.294769     -0.164662
Pb       3.80971     15.27191      4.33438         0.174876      0.093388     -0.188730
Pb       4.10868      0.00071     17.41696        -0.312712      0.199801     -0.139715
Pb       0.06356      3.77747      4.30295         0.163491      0.132217     -0.159977
Pb      15.52701      3.81284     17.39064         0.022148     -0.496548     -0.277955
Pb      15.33282     15.23267      4.28161         0.269634      0.524231     -0.013392
Pb      15.52387     15.34920     17.37239        -0.088819      0.560082      0.072085
Pb       3.92204      3.86338      8.63162        -0.115050     -0.372457      0.328224
Pb       3.85906     15.33507      8.72738         0.506550     -0.196012     -0.573954
Pb       0.12961      3.90188      8.70729         0.145906     -0.588743     -0.381197
Pb      15.47802      0.01810      8.71626        -0.210584      0.127247      0.110045
Pb       3.95169      3.83736     13.05317         0.153027      0.581564     -0.411249
Pb       4.02148     15.29215     13.09520        -0.494592     -0.196052     -0.354139
Pb       0.18174      3.69539     13.13255         0.114155      0.028881     -0.685688
Pb      15.47925     15.23747     13.09319         0.223603      0.349680     -0.971826
Pb       3.84900      7.59161      4.26921         0.109710      0.041509     -0.128331
Pb       4.13331      7.53236     17.41155        -0.153501      0.333986     -0.079943
Pb      15.35487      7.66319      4.33799         0.120306     -0.030995     -0.348869
Pb       0.23901      7.59390     17.28221        -0.199345      0.427540      0.262832
Pb       3.91699      7.74751      8.67769         0.082220      0.014870      0.047392
Pb       0.20519      7.70542      8.79045        -0.449493      0.104738     -0.435710
Pb       4.07054      7.69619     12.96028         0.267635     -1.069480      0.519970
Pb      15.41090      7.67567     13.16525        -0.001480      0.036922     -0.341179
Pb       3.77105     11.50179      4.24478         0.066464      0.328579     -0.061139
Pb       3.92071     11.45506      0.13333        -0.429550      0.329892     -0.894671
Pb       0.06435     11.50211      4.17724        -0.032447     -0.413918     -0.013609
Pb      15.58185     11.45562     17.37722        -0.118797      0.023513     -0.066192
Pb       3.91972     11.51728      8.67493        -0.140488      0.383949     -0.519276
Pb       0.15442     11.42805      8.66533        -0.017165      0.266503      0.038558
Pb       3.88580     11.42224     13.17344         0.301054      0.778346     -0.274237
Pb      15.36429     11.49856     13.11691         0.284143      0.011046     -0.156893
Pb       7.68300      3.71279      4.42860        -0.229256      0.736359     -0.093935
Pb       7.71829      3.89735      0.04166        -0.637663     -0.286577     -0.560737
Pb       7.74226      0.02108      4.35732        -0.745951     -0.107949      0.498705
Pb       8.01950      0.06575     17.38101        -0.481210      0.202490     -0.178315
Pb       7.74259      3.86561      8.59288        -0.034270     -0.537691      0.825527
Pb       7.84790     15.21111      8.58574        -0.927104      0.676936      0.129607
Pb       7.72435      3.80120     12.95419        -0.233153     -0.205246     -0.196994
Pb       7.66561      0.12084     12.91156         0.120875     -0.267727      0.249833
Pb       7.77248      7.67894      4.35770         0.068711     -0.565119     -0.200889
Pb       7.71366      7.63291      0.02956        -0.272274     -0.030554     -0.541632
Pb       7.78518      7.64664      8.73160         0.320763      0.702308     -0.148694
Pb       7.83630      7.75443     13.00332         0.334636     -0.353197      0.307611
Pb       7.79928     11.41800      4.23829        -0.173762      0.752473      0.568098
Pb       7.61881     11.57482      0.06012         0.100304      0.159088     -0.562905
Pb       7.69315     11.49311      8.64772         0.433768     -0.083563     -0.573345
Pb       7.80464     11.54047     13.07212        -0.054532      0.521378     -0.022827
Pb      11.60180      3.74302      4.45509        -0.412416      0.239635     -0.164875
Pb      11.56047      3.80463     17.36452         0.823985      0.048104      0.065871
Pb      11.61621     15.34089      4.39860         0.357516      0.167153     -0.273284
Pb      11.75687      0.10578     17.32062         0.119354     -0.211629      0.370117
Pb      11.68602      3.88375      8.70730         0.098022     -0.575713      0.097940
Pb      11.62098     15.30611      8.68230         0.228789      0.229359      0.275142
Pb      11.57452      3.88951     13.04931         0.182567     -0.207171     -0.789605
Pb      11.55487     15.17045     13.06823         0.294013      0.260821     -0.535835
Pb      11.63617      7.63611      4.50196        -0.409980      0.234990     -0.567948
Pb      11.75150      7.61687     17.36106         0.042862      0.331549     -0.192688
Pb      11.70451      7.71598      8.69270        -0.005051      0.223527     -0.248978
Pb      11.67685      7.69831     13.11017        -0.270695      0.297023     -0.639458
Pb      11.61251     11.50293      4.22301         0.382959     -0.586789      0.367053
Pb      11.58949     11.55613     17.42054         0.522255      0.032970     -0.196343
Pb      11.66761     11.58975      8.61065        -0.256725     -0.387739     -0.089103
Pb      11.56916     11.51276     13.04106         0.057680     -0.137108     -0.084545
Ti       1.92931      1.88429      2.32066        -0.455955      0.443244     -0.308190
Ti       2.10967      1.88821     15.33250        -0.293602      0.063422     -0.053263
Ti       1.93131     13.46097      2.19377         0.567934     -0.406211      0.273825
Ti       2.10423     13.47318     15.42922         0.548835     -0.183287     -0.067564
Ti      13.42468      1.93477      2.36044         0.374856     -1.094355     -1.307359
Ti      13.57608      1.98151     15.21914         1.134895     -0.741946      1.325934
Ti      13.44050     13.40733      2.30586         1.062278      0.131393     -1.127337
Ti      13.65122     13.44923     15.43339        -1.030131     -0.112142     -0.378617
Ti       2.04402      1.82331      6.54730        -0.486088      0.316712     -0.619102
Ti       1.96997     13.38892      6.56894         0.985880      0.178133      0.351910
Ti      13.55986      1.81341      6.68114         0.643814      0.565716     -0.335332
Ti      13.59711     13.36886      6.64083        -0.019664      0.266705     -0.943727
Ti       2.02555      1.90700     11.03203        -0.858382     -0.914736      1.216789
Ti       2.01070     13.35389     11.09650         0.300626      0.460532      1.604902
Ti      13.52815      1.88567     11.10310         0.749134     -0.509187      0.532028
Ti      13.48428     13.35893     11.02045         1.202998      0.678413      0.150457
Ti       1.95578      5.73855      2.26877        -0.358408     -0.679484      0.659422
Ti       2.13043      5.78734     15.33686         0.546205     -1.215021      0.028004
Ti      13.35549      5.72710      2.36485         0.955589      0.027386     -1.363453
Ti      13.62380      5.72833     15.32586         0.018014     -0.061791      0.494260
Ti       2.02542      5.77448      6.69454        -0.147454     -0.735282     -0.577318
Ti      13.58984      5.72487      6.67818         0.394997     -0.160650     -0.520495
Ti       2.00800      5.77511     11.03434         2.076192     -0.708822      1.114517
Ti      13.58170      5.75076     10.97617         0.267270      0.046566      1.007860
Ti       1.93675      9.49441      2.15064        -0.527519      0.414593      1.143116
Ti       2.23856      9.60870     15.39272        -0.638856     -0.067463      1.270001
Ti      13.44961      9.48187      2.17278         0.396521      1.886545     -0.615585
Ti      13.61149      9.62447     15.48560        -0.303435      0.190773     -0.304579
Ti       2.08755      9.57192      6.59199        -0.531800      0.573501     -0.135081
Ti      13.57905      9.55062      6.61477         0.079655      0.199693     -0.742000
Ti       2.07863      9.51372     11.16874        -0.291405      1.499135     -1.071205
Ti      13.56042      9.57940     11.10277        -0.349138     -0.606695     -0.320910
Ti       5.77509      1.90183      2.29084        -0.203383      0.694296     -0.902048
Ti       5.92189      1.98198     15.36718        -0.043003     -0.692514     -0.453005
Ti       5.86547     13.48157      2.36239        -0.870369      0.153065      0.372003
Ti       5.88899     13.51116     15.50391         0.964715     -0.491334     -1.360383
Ti       5.85530      1.86993      6.69402        -0.262607     -0.569266      0.287480
Ti       5.80319     13.36743      6.51535        -0.328194      0.902314      0.785183
Ti       5.71861      1.85202     10.93836         2.376679      0.637697     -1.459324
Ti       5.83194     13.39280     10.95733        -0.775401      0.609657     -0.169065
Ti       5.82393      5.76634      2.30451         0.126122     -0.308819     -1.332837
Ti       5.99829      5.79662     15.47685        -0.081077     -0.362002     -0.395929
Ti       5.85074      5.76802      6.78790         0.098132     -0.450398     -1.269536
Ti       6.01370      5.77928     10.93557        -2.094659     -1.209092     -0.285065
Ti       5.72367      9.62401      2.35732         0.338845     -0.321724     -0.320081
Ti       6.03763      9.63205     15.45559        -0.835130     -0.100283     -0.523113
Ti       5.98772      9.52367      6.60845        -0.937654      1.348972      1.644250
Ti       5.93226      9.63501     11.01159         0.196694     -0.147373     -0.583148
Ti       9.57675      1.96185      2.49713         1.095901      0.152025     -2.096480
Ti       9.75451      2.00327     15.31183        -0.479518     -0.906375     -1.158564
Ti       9.70538     13.56284      2.41229        -0.622360     -1.017837     -0.220798
Ti       9.75458     13.50051     15.37898         0.128815     -0.347106     -1.012323
Ti       9.72070      1.95252      6.74303        -0.234319     -0.156512     -0.631688
Ti       9.70425     13.43266      6.56815        -0.228019     -0.630456      1.708191
Ti       9.72336      1.89666     10.96581         0.292502     -0.176424      0.008963
Ti       9.61151     13.46570     10.89521         1.007247     -0.811637      0.672260
Ti       9.64932      5.74693      2.28930        -0.389771      0.207278      0.840416
Ti       9.81036      5.83814     15.27437        -0.665573      0.125242     -0.079469
Ti       9.76177      5.71954      6.72632         0.157697      0.518235     -0.818274
Ti       9.78626      5.70963     10.90958         0.886177      0.499367      1.282270
Ti       9.60395      9.60728      2.34952         1.645776     -0.317012     -0.170994
Ti       9.71305      9.68264     15.49451         1.167497     -0.326974     -0.400151
Ti       9.71803      9.57549      6.61294         0.535541      0.299067      0.519918
Ti       9.66949      9.60861     10.98094         1.504412     -0.581996     -1.309292
O       1.80733      2.01642      0.53406         0.342231     -0.406228      0.868141
O       2.02152      1.87595     13.54351         0.311249      0.114050      0.256194
O       2.01062     13.55420      0.43173        -0.486509     -0.388396      0.645160
O       2.13702     13.45066     13.63283        -0.061512     -0.039365      0.876155
O      13.41065      1.89687      0.53891         0.012730      0.363009      1.229128
O      13.70822      2.05289     13.48653        -0.391504     -0.359097     -0.483835
O      13.51092     13.46243      0.49645        -0.413466     -0.125125      0.835460
O      13.59080     13.41928     13.63243         0.014534      0.001182      0.576624
O       1.92283      1.91092      4.73052         0.499543      0.020888      1.282645
O       1.94976     13.35948      4.81138         0.269172     -0.186210     -0.436416
O      13.58638      1.81124      4.86440        -0.461966      0.123965      1.152743
O      13.59761     13.43845      4.79641        -0.151268     -0.106598      1.405176
O       1.93836      1.73499      9.29096         0.231824      0.284019     -0.445403
O       2.14786     13.28122      9.37694        -0.035680      0.034147     -1.126485
O      13.66829      1.74426      9.36412        -0.149583      0.339490     -0.910069
O      13.50599     13.30715      9.26633         0.166714      0.067227     -0.538239
O       2.03204      5.74735      0.53319        -0.248504     -0.279435     -1.031144
O       2.16170      5.57768     13.59469        -0.308336      0.662621     -0.028904
O      13.24951      5.69178      0.52122         0.334031      0.220132      1.765086
O      13.62917      5.78638     13.58084         0.051907     -0.178886     -0.010849
O       1.96576      5.73151      4.89016         0.416301      0.267841      0.963204
O      13.58729      5.78780      4.87100        -0.228627     -0.212104      0.118986
O       2.19728      5.70591      9.29509        -0.571895      0.479578     -0.960300
O      13.71395      5.93402      9.22153        -0.432165     -0.539929     -0.361141
O       1.92167      9.55031      0.40766         0.178098      0.057582     -0.382502
O       2.27926      9.52767     13.63788        -0.119625      0.210425      0.074872
O      13.48388      9.58067      0.32372        -0.124334     -0.259405      1.316528
O      13.56137      9.58720     13.68632         0.044603     -0.159344      0.048983
O       1.93537      9.53339      4.80783         0.329114     -0.031826      1.154441
O      13.66930      9.65978      4.81867        -0.246761     -0.587365      1.171339
O       2.13431      9.55130      9.32205        -0.324960      0.103274      1.202708
O      13.63081      9.47797      9.29846        -0.180808      0.197379      0.513217
O       5.80339      2.00013      0.46783         0.049372     -0.475714      1.458289
O       5.97324      1.85625     13.51335         0.008969      0.278396      1.274713
O       5.80593     13.61242      0.58131         0.201623     -0.565848      0.003457
O       5.98271     13.46741     13.70711        -0.131312      0.007990      0.273001
O       5.90191      1.98100      4.90889         0.065634      0.002706      0.088821
O       5.84129     13.45195      4.76538        -0.211131     -0.137488     -0.131963
O       5.81345      1.71426      9.10843        -0.435852      0.638022      1.115882
O       5.60314     13.50671      9.17765         0.953183     -0.563979      1.022635
O       5.81694      5.80584      0.41166        -0.108475     -0.161233      1.715549
O       5.91153      5.75825     13.72516         0.515669     -0.137613     -0.445313
O       5.86179      5.70552      4.97563        -0.025728      0.277355      1.051059
O       5.84995      5.68474      9.11173         0.287151      0.469063      1.175344
O       5.68362      9.69079      0.57602         0.452841     -0.211634      0.510954
O       6.08330      9.62088     13.66343        -0.051429     -0.063479     -0.071559
O       6.05027      9.61565      4.91427        -0.219570     -0.386701     -1.982098
O       6.07600      9.60458      9.23035        -0.731020     -0.066764      0.453767
O       9.69037      1.95267      0.62707        -0.411074      0.046025      0.850904
O       9.62675      1.92467     13.49849         0.301830      0.071545      1.320012
O       9.75030     13.48997      0.64533        -0.551311      0.205576      0.511700
O       9.76807     13.42734     13.54030         0.032372      0.150971      1.226936
O       9.58170      2.05246      4.92259         0.461124     -0.394252      0.484116
O       9.74183     13.41367      4.83232        -0.083615      0.198942      0.005481
O      10.00660      1.81238      9.22995        -0.955612      0.349623     -0.017108
O       9.62881     13.49452      9.12330         0.323427     -0.384829     -0.001783
O       9.76003      5.74219      0.47624        -0.429996     -0.073416      1.039713
O       9.79282      5.79474     13.48495        -0.108791     -0.192249      1.149588
O       9.75324      5.63616      4.93787        -0.050912      0.164941      0.989514
O      10.02971      5.73706      9.16904        -0.742686      0.314491     -0.261747
O       9.56418      9.66973      0.57848         0.013126     -0.086869     -0.103785
O       9.71848      9.51172     13.74878        -0.244535      0.769890     -0.844546
O       9.73664      9.59312      4.83965        -0.287921      0.074455     -0.231667
O       9.74701      9.54273      9.15270         0.043758      0.056610      1.484472
O       3.93783      1.89651      2.65333        -0.481129      0.031861      0.103232
O       4.02425      1.85958     15.76226         0.939410     -0.241437      0.010787
O       3.92486     13.33527      2.65950        -0.557578      0.438637      0.104719
O       4.04191     13.46943     15.89106        -0.014336      0.332742     -0.175858
O      15.36985      1.82654      2.74462         0.097154      0.609946     -0.319112
O       0.22502      1.94410     15.68640        -0.738353      0.181523      0.252209
O       0.07908     13.41908      2.70188        -0.435101      0.098092     -0.566948
O      15.55954     13.38696     15.85815         0.034101      0.243754     -0.450671
O       3.90520      1.81843      6.95873         0.157280      0.430150      0.051986
O       3.91219     13.37368      7.02411         0.520275     -0.224379     -0.270601
O       0.14067      1.78798      7.06490         0.084512      0.207685      0.056666
O       0.17269     13.37753      7.04505        -1.498845      0.043487      0.277784
O       3.98255      1.81182     11.36218        -1.863755      0.483817      0.287498
O       4.00773     13.34482     11.49157         0.221097     -0.192672      0.197014
O      15.48900      1.86021     11.46270         0.374312      0.097544      0.233030
O       0.16110     13.30204     11.39000        -0.691911      0.294594      0.431267
O       3.93357      5.77158      2.74579         0.030275     -0.269875      0.061116
O       4.02643      5.89091     15.72375         0.353015     -0.218032      0.483298
O       0.06388      5.70955      2.71951        -0.570563      0.346893     -0.385524
O       0.24209      5.72456     15.80329        -0.679475     -0.527236     -0.197956
O       3.95265      5.70148      7.14626        -0.051094      0.902051     -0.434512
O       0.18699      5.80902      7.15128         0.063701     -0.301323      0.008595
O       3.98267      5.74420     11.46678         0.772539      0.252004     -0.050528
O       0.23633      5.93943     11.35759        -1.550221     -0.164445      0.192391
O       3.85533      9.60682      2.76595         0.458903     -0.269645     -0.324759
O       4.16677      9.49448     15.88478        -1.156284     -0.009618     -0.309266
O       0.09552      9.42308      2.63937        -0.047136      0.452637     -0.421059
O       0.22449      9.65506     15.73419         0.524286     -0.007933     -0.028613
O       4.02961      9.53094      6.97268        -0.572667      0.201122      0.038088
O       0.12834      9.61838      7.11748         0.101969     -0.343711     -0.176467
O       4.08082      9.52020     11.44180        -0.322545      0.578585     -0.124521
O      15.46052      9.50962     11.68421         0.393134      0.045457     -0.838119
O       7.72435      1.93112      2.74131        -0.697103     -0.010655      0.106616
O       7.84112      1.99816     15.79217         1.064287     -0.328618     -0.004630
O       7.74906     13.38034      2.78951         0.482641      0.348858     -0.507988
O       7.91063     13.39026     15.81717        -0.299297      0.585400      0.537592
O       7.83555      2.06811      7.13839        -0.306592     -0.720421     -0.377297
O       7.74855     13.45861      7.02926         0.910925     -0.308975     -0.430709
O       7.74238      1.90522     11.25664         1.227673     -0.332994      0.220714
O       7.80204     13.45084     11.36114        -0.458002      0.235884     -0.251311
O       7.72654      5.74454      2.72151         0.827353     -0.025584     -0.389790
O       7.92862      5.71276     15.84374         0.929956     -0.011821     -0.095653
O       7.89418      5.77968      7.25654        -0.578536     -0.452304     -0.805054
O       7.86858      5.64767     11.28327        -0.047889      0.236046     -0.169117
O       7.79771      9.61163      2.74604        -1.193532     -0.115003     -0.195849
O       7.85704      9.59943     15.88222         0.296162      0.724457      0.696318
O       7.84070      9.51352      7.18767         0.136938      0.590196     -0.546334
O       7.82470      9.47869     11.35112         0.288724      0.380897      0.490263
O      11.53197      1.82510      2.86374         0.449506      0.457331      0.023715
O      11.74002      1.83065     15.59956        -1.221302      0.831625      0.065683
O      11.62265     13.49318      2.81672        -0.795078     -0.024940     -0.245511
O      11.64936     13.51169     15.84409         0.716290     -0.387689     -0.309017
O      11.66881      2.00278      7.14110         0.469517     -0.735747     -0.727033
O      11.71230     13.47174      7.05681        -1.175498     -0.117425     -0.384265
O      11.67332      1.96580     11.43485        -0.146878     -0.163573      0.411767
O      11.66639     13.40591     11.36145        -0.981654     -0.714240      0.320319
O      11.53180      5.81873      2.85252         0.412165     -0.462552     -0.343444
O      11.70689      5.71231     15.73217        -0.228333      0.480121     -0.289297
O      11.75492      5.69189      7.12288        -1.046826      0.214569     -0.313918
O      11.68277      5.67009     11.44674        -0.008631      0.195985     -0.263587
O      11.65532      9.58954      2.68133        -0.999584     -0.091681     -0.102471
O      11.66861      9.63219     15.84497         0.167301      0.010580      0.115183
O      11.68177      9.55745      6.95509         0.016090     -0.157665      0.294798
O      11.63177      9.64477     11.57299         0.125379     -0.364342     -0.522198
O       2.01200      3.80615      2.68031        -0.012141     -0.050139      0.252614
O       2.31989      3.72562     15.74390        -0.780799      1.646964      0.108809
O       1.98385     15.32247      2.71345         0.281127     -0.063497     -0.296524
O       2.11694      0.01277     15.88704        -0.049925     -0.399130     -0.481948
O      13.47062      3.82437      2.73277        -0.259980      0.326833      0.067811
O      13.62872      3.81668     15.74673         0.012036      0.280086     -0.104314
O      13.48828     15.34205      2.69814        -0.071453     -0.252571      0.151479
O      13.60295      0.04871     15.74925         0.693024     -0.443779     -0.199037
O       2.04827      3.79529      7.10607        -0.225149      0.168395     -0.291056
O       2.16483     15.25530      6.85881        -0.778818      0.976718      0.408039
O      13.65556      3.80641      7.03634         0.297222     -0.456989      0.238519
O      13.61410     15.29007      7.15429        -0.255730      0.237223     -0.469697
O       2.07174      3.81521     11.41482        -0.170383     -0.064644     -0.188878
O       2.03342     15.29211     11.57110         0.252131     -0.094428     -0.525815
O      13.70424      3.91009     11.40104        -0.053244     -0.499892     -0.202225
O      13.55523     15.25911     11.43636         0.217307      0.430183      0.361620
O       2.12930      7.58401      2.51728        -0.283816      1.238511      0.607889
O       2.00667      7.64326     15.76429         0.625353      0.736258     -0.299763
O      13.46426      7.76137      2.74297         0.093237     -2.586415      0.016260
O      13.66554      7.65518     15.72932        -0.088237     -0.515792      0.199124
O       2.05490      7.72795      7.13637         0.226866     -0.606715     -0.286081
O      13.60338      7.57784      6.93064        -0.005247      1.819319      0.312530
O       2.13530      7.73993     11.53178        -0.104385     -1.197982     -0.071190
O      13.46793      7.61807     11.45997         0.357851      0.821873      0.344420
O       1.93583     11.47804      2.57268         0.193578     -0.120675     -0.150760
O       2.26761     11.55692     15.79856        -0.189171     -0.921963     -0.143719
O      13.51650     11.46918      2.62535         0.171474      0.310699     -0.116565
O      13.59548     11.53279     15.71338         0.134249      0.526958      0.461423
O       2.00562     11.52615      7.11142         0.510194     -1.445849     -0.171067
O      13.49187     11.49422      7.00782         0.506332     -0.008562      0.232813
O       2.05374     11.43654     11.66643         0.289098     -0.367343     -0.388089
O      13.61730     11.45860     11.45167        -0.186940     -0.123600      0.204996
O       5.82371      3.91194      2.69006         0.014640     -1.188441      0.072405
O       5.92947      3.81154     15.81328        -0.059044      0.514464     -0.141930
O       5.80548      0.02353      2.87214         0.375456     -0.156527     -0.776592
O       5.98198      0.02097     15.77430         0.266840      0.500329      0.339404
O       5.77388      3.80122      7.09044         0.718025      0.549302      0.133239
O       5.91992     15.34594      6.97076        -0.034117     -0.239423     -0.193130
O       5.88505      3.78663     11.45720        -0.117282      0.681880     -0.474293
O       5.75851     15.34874     11.38658         0.818828     -0.979658      0.193502
O       5.87688      7.65007      2.70095        -0.246687      0.988688      0.238382
O       6.18912      7.65249     15.83101        -0.641541      0.729793      0.210688
O       5.99513      7.69131      7.03942        -0.391446     -1.087577      0.267621
O       5.98483      7.61280     11.42110        -0.045904      0.216492     -0.324874
O       5.79885     11.50018      2.76100         0.356076     -0.225124     -0.355611
O       5.90640     11.55220     15.79162         0.381900     -0.416267      0.726946
O       5.92083     11.53084      6.93094         0.208510     -0.806921      0.510979
O       6.03890     11.49779     11.38840        -0.239706     -0.067326     -0.124785
O       9.67685      3.81210      2.81422         0.247179      1.010769     -0.384595
O       9.78337      3.87221     15.71659         0.413697     -0.340174     -0.078093
O       9.59673      0.05741      2.88203         0.328511     -0.854813     -0.290486
O       9.82441      0.04618     15.83405        -0.562363      0.390212     -0.372163
O       9.76991      3.80129      7.13201         0.192583      1.043167      0.275414
O       9.67566      0.03985      7.08123         0.411493     -0.690977     -0.633582
O       9.86391      3.79583     11.27147        -0.722100      0.203027      0.241800
O       9.91174     15.25407     11.29430        -0.700183      1.277217      0.282566
O       9.65287      7.62737      2.78877         0.068508      0.213582     -0.428506
O       9.75491      7.79066     15.74347         0.190611     -2.170345      0.536212
O       9.73769      7.70418      6.86776         0.339837     -1.150424      0.583643
O       9.79628      7.65794     11.41291        -0.119073     -0.129031     -0.308151
O       9.76577     11.52662      2.75907        -0.334048      0.133438     -0.346344
O       9.72611     11.61138     15.85827         0.368245     -0.502196      0.179485
O       9.76189     11.49437      7.04845        -0.238622      0.869767     -0.288649
O       9.73013     11.48174     11.38117        -0.365726      0.315158     -0.030403
