  # total energy = -7879.09606673 
CRSYTAL
PRIMVEC
    15.3600000000000000    0.0000000000000000    0.0000000000000000
     0.0000000000000000   15.3600000000000000    0.0000000000000000
     0.2400000000000000    0.0000000000000000    17.440000000000000
PRESSURE
1.41449 0.876161 -0.200916 -0.121175 -0.540923 0.108245
PRIMCOORD
320 1
Pb       3.95150      3.95778      4.31516        -0.503807     -0.606901     -0.356480
Pb       4.08088      3.80537     17.38746        -0.171294     -0.129211     -0.868446
Pb       4.01180     15.26928      4.48360         0.052331      0.251823     -0.672609
Pb       3.65625     15.35755      0.06552         0.176953      0.394748     -0.762736
Pb      15.31714      3.82481      4.24571         0.273851     -0.220757     -0.328626
Pb       0.09563      3.84000      0.08401        -0.202041     -0.599073     -0.952325
Pb      15.33520      0.17252      4.47668        -0.146557     -0.024171     -1.055850
Pb      15.09177     15.19344      0.10771         0.381565      0.780787     -0.538600
Pb       4.12083      3.68349      8.62425        -0.532727      0.864989     -0.167351
Pb       3.84555     15.30292      8.90057         0.435076      0.203393     -0.563720
Pb      15.42531      3.81311      8.57813        -0.076328     -0.028524     -0.234073
Pb      15.44778     15.30898      8.68353        -0.146715      0.013836     -0.118599
Pb       3.93683      3.84721     13.10299         0.010334      0.139348     -0.370794
Pb       4.13130      0.02000     13.17530        -0.404362     -0.131050     -0.064923
Pb       0.18191      3.86526     13.05415        -0.141390      0.083882     -0.182274
Pb       0.24843      0.21499     13.06338        -0.154702     -0.270514     -0.494699
Pb       3.80639      7.64639      4.29854        -0.433613      0.215106      0.262537
Pb       3.87671      7.63762     17.32434         0.180822      0.313673     -0.546493
Pb      15.37651      7.63493      4.35364         0.502574      0.358516     -0.373807
Pb      15.52296      7.83000     17.33016         0.448557     -0.072606     -0.010517
Pb       3.88228      7.62586      8.71689         0.259271     -0.363343     -0.317230
Pb      15.34081      7.65876      8.71386         0.118733      0.227992     -0.240465
Pb       4.05339      7.77145     12.88517        -0.379777     -0.721321     -0.193329
Pb      15.29477      7.64724     13.11479         0.186384     -0.102160     -0.340265
Pb       3.80399     11.44929      4.40721         0.115324     -0.066676      0.058777
Pb       3.85853     11.66743      0.22516        -0.506555     -0.498017     -1.219685
Pb       0.20382     11.58983      4.43888        -0.176703     -0.403021     -0.841342
Pb       0.24122     11.45322     17.42817         0.024065     -0.175800     -0.719408
Pb       3.86889     11.51720      8.73974         0.064176     -0.130000     -0.089735
Pb      15.37826     11.36354      8.63414         0.268447      0.380996      0.272786
Pb       4.03627     11.45687     13.07590        -0.067165      0.338663     -0.498679
Pb       0.31868     11.54153     12.97236        -0.542776      0.103302     -0.136480
Pb       7.68294      3.88096      4.16909         0.193236     -0.076724      0.020683
Pb       7.80888      3.96948      0.01411        -0.159975     -0.544732     -0.483174
Pb       7.75474      0.16456      4.27507        -0.101071     -0.587346     -0.071284
Pb       7.78700     15.25360     17.32119         0.524672     -0.038209     -0.177233
Pb       7.73348      3.85323      8.68156        -0.029943     -0.145382     -0.151342
Pb       7.86020     15.34582      8.68558        -0.576108      0.037719      0.008496
Pb       7.86185      3.54323     13.18699         0.050184      0.267591     -0.420856
Pb       7.83663     15.25467     13.07161        -0.274562      0.339740     -0.127741
Pb       7.67717      7.79204      4.18718         0.324930     -0.692658      0.585652
Pb       7.81040      7.60091     17.41187         0.236841      0.171713     -0.253089
Pb       7.84970      7.62878      8.81396        -0.141995      0.357536     -0.787498
Pb       7.81880      7.58949     13.09191         0.365477     -0.167852     -0.476594
Pb       7.56785     11.48350      4.22617        -0.026252      0.553417      0.536197
Pb       7.84703     11.42977     17.42140         0.615731     -0.030448     -0.804599
Pb       7.83327     11.58181      8.77575        -0.102291      0.231483     -0.165224
Pb       7.86405     11.39964     13.05257        -0.353722      0.338657     -0.479629
Pb      11.51799      3.83866      4.24946        -0.112923     -0.367851     -0.806306
Pb      11.74918      3.80930     17.39872        -0.033296     -0.106230     -0.335836
Pb      11.49202     15.32767      4.36220         0.358975      0.049697     -0.786845
Pb      11.74768     15.14330     17.29254         0.256552      0.078979      0.022404
Pb      11.52115      3.79344      8.62675         0.243065      0.099248      0.103092
Pb      11.50859     15.20281      8.72944         0.568390      0.385143      0.274128
Pb      11.75727      3.90688     13.15763        -0.409658     -0.305139     -0.230219
Pb      11.75832      0.00384     13.06678         0.215580      0.458344     -0.362256
Pb      11.51206      7.71210      4.45181        -0.115679      0.301856     -0.896082
Pb      11.86903      7.70693     17.38408        -0.514649     -0.036678     -0.267648
Pb      11.58229      7.60553      8.59372        -0.203006      0.369666     -0.106265
Pb      11.58989      7.57202     13.15518         0.163603      0.037918     -0.101674
Pb      11.36990     11.56067      4.29972         0.751764      0.023949      0.261994
Pb      11.76089     11.35207     17.42849        -0.019068      0.689201     -0.749710
Pb      11.65843     11.47835      8.58715        -0.103260     -0.279065      0.027810
Pb      11.72577     11.64093     13.01803         0.318254     -0.449944     -0.655622
Ti       1.98563      1.87727      2.34620        -0.303472      0.858357      0.517864
Ti       2.17028      1.88120     15.36227        -0.596347      0.417827      0.896403
Ti       2.00828     13.50574      2.30650        -0.595707     -0.713019      0.264047
Ti       2.25350     13.41972     15.45953        -0.798491     -0.340296     -1.270176
Ti      13.40138      1.91618      2.24755         0.603274     -0.563447     -0.433738
Ti      13.69204      1.89227     15.42886         0.817910     -0.062368      0.275877
Ti      13.54002     13.38761      2.38184        -0.466683      0.341020     -0.425977
Ti      13.87013     13.41315     15.25362        -1.169622     -0.231682      2.474954
Ti       1.99899      1.91856      6.59728         0.025781      0.374472      1.037853
Ti       2.02783     13.49292      6.70470         0.036030     -0.793757      0.118979
Ti      13.41847      1.86599      6.59856         0.795259      0.318667      0.234276
Ti      13.57975     13.41574      6.60021        -0.170104     -0.011255      0.211239
Ti       2.05710      1.97433     10.89561        -0.486333     -0.393333      0.849342
Ti       2.00183     13.41723     10.96894        -0.102170      0.836371      0.183724
Ti      13.56404      2.03531     10.97998        -0.341463     -1.497500      2.475899
Ti      13.57072     13.51738     10.97502         0.245655      0.157779      1.395635
Ti       1.90650      5.74580      2.30406         0.243490     -0.131896      1.562315
Ti       2.12290      5.73194     15.32804         0.205350     -0.261239      0.308328
Ti      13.48644      5.85055      2.24674        -0.570729     -1.043283     -0.067937
Ti      13.71062      5.74543     15.55487        -0.383236     -0.950768     -1.203017
Ti       1.98111      5.74146      6.62077         1.058352      0.163523      0.761261
Ti      13.49260      5.72532      6.53633         0.255113     -0.367233      0.713083
Ti       2.01798      5.77251     10.90088         0.720909     -0.131017      1.140288
Ti      13.57510      5.77241     10.99346         0.341583     -0.361127     -0.637463
Ti       1.88058      9.64107      2.22886        -0.898888     -0.824945      0.337328
Ti       2.15455      9.60917     15.20575        -0.509097      0.277454      2.475488
Ti      13.42453      9.59357      2.29652         0.992791      0.274460     -0.827649
Ti      13.59289      9.63477     15.30092         1.263334     -0.100620     -0.420286
Ti       2.01972      9.59107      6.78564         0.101523     -0.236254      0.134353
Ti      13.56842      9.55077      6.51711        -0.904565      0.444329      1.168587
Ti       2.00148      9.54993     11.00415         0.552270      0.238216     -1.735271
Ti      13.61677      9.62140     11.02942        -0.400436      0.468025     -0.983791
Ti       5.78944      1.86040      2.15213        -0.238791     -0.065885      0.561330
Ti       6.06405      1.86368     15.44477        -1.491237      0.419242     -0.964036
Ti       5.83141     13.37282      2.18750        -0.084633      1.161675     -0.475033
Ti       5.99106     13.32106     15.46175        -0.032831     -0.278130     -1.374754
Ti       5.83994      1.90376      6.57734         0.513187     -1.095389      1.366774
Ti       5.81308     13.53648      6.85195         1.868123     -1.047202     -0.842481
Ti       5.76041      1.88929     11.08923         2.612115     -0.511749      0.058545
Ti       5.81554     13.36180     11.10679         1.167920      0.661048     -1.346948
Ti       5.73607      5.78388      2.26330         0.536336     -0.147599      0.642046
Ti       6.00303      5.71176     15.25691        -0.837630     -0.131361      1.062512
Ti       5.89251      5.76920      6.61752        -1.011459      0.942281      1.818860
Ti       5.97491      5.69478     11.08182        -1.187197     -0.690645     -1.214064
Ti       5.62245      9.56603      2.30514         0.373192      0.014078      0.447420
Ti       5.89452      9.50776     15.24923        -0.271283      0.181842      0.939712
Ti       5.85551      9.65085      6.88066        -0.035265     -0.321550      0.086414
Ti       5.97739      9.53564     10.96425        -0.330061      0.645329     -0.021114
Ti       9.59475      1.83300      2.08010         1.078193      0.300624      0.519779
Ti       9.86358      1.75678     15.46603         0.259631      1.183391      0.492903
Ti       9.70108     13.43084      2.27567        -0.883635      0.608014      0.627558
Ti       9.90112     13.35601     15.25635        -0.164025     -0.787136      0.957396
Ti       9.70202      1.90110      6.55995        -1.130637     -0.060000      0.108267
Ti       9.75250     13.48670      6.68482        -1.474005     -0.585053     -0.078662
Ti       9.77073      1.88206     11.16381         0.069148      0.414430      0.594700
Ti       9.66123     13.40226     11.16394         0.785564      0.267923     -1.073490
Ti       9.64886      5.75130      2.32723        -0.721970     -0.091179     -0.909862
Ti       9.81705      5.78101     15.50349         1.035583     -0.257306     -1.295176
Ti       9.62299      5.71586      6.44440         0.346948     -0.034365      0.123333
Ti       9.77663      5.68997     11.13843        -0.280909     -0.091877     -0.421861
Ti       9.63523      9.63842      2.32889        -0.114335     -0.752362     -0.047400
Ti       9.71703      9.57632     15.33450         1.124250      0.198582      1.632007
Ti       9.63481      9.61378      6.59585        -0.271220     -0.061338      0.716456
Ti       9.83850      9.50711     11.10836        -0.369969      0.080265     -0.583936
O       2.05536      1.97309      0.60603        -0.069982     -0.290378     -1.426375
O       2.08693      2.03145     13.61256         0.091348     -0.213795     -1.109411
O       1.98433     13.41976      0.52173         0.063873      0.180260     -0.348933
O       2.18494     13.33917     13.68639         0.002670     -0.116865     -0.684639
O      13.53747      1.82480      0.44142        -0.095590      0.019378      0.885631
O      13.75748      1.82257     13.66084        -0.028491      0.353772     -0.909235
O      13.47289     13.42613      0.54614         0.030264      0.047283      0.543299
O      13.83659     13.44522     13.56934        -0.117545     -0.099129     -1.734334
O       1.98289      1.99940      4.87379        -0.022111     -0.693312     -1.331701
O       2.14955     13.43230      4.92707        -0.225580     -0.035843     -0.581433
O      13.47179      1.83948      4.79959        -0.131058      0.202396      0.312324
O      13.45548     13.39279      4.84309         0.447937      0.201391     -0.219990
O       1.95606      1.96636      9.15671         0.331088     -0.253015     -1.072508
O       1.96416     13.39419      9.21199         0.522272      0.260387     -0.763737
O      13.43839      2.06140      9.30288         0.185211     -0.006895     -2.542407
O      13.60799     13.49827      9.27657        -0.208617     -0.007697     -2.644976
O       1.97696      5.68001      0.61794        -0.048988      0.091395     -2.654090
O       2.09004      5.59822     13.60667        -0.202150      0.293890     -1.336816
O      13.46208      5.76523      0.46239        -0.008761      0.068814     -0.015394
O      13.71744      5.72753     13.73933        -0.071621      0.222378     -0.521848
O       2.02483      5.85345      4.87708         0.313883     -0.271838     -1.392765
O      13.60251      5.77294      4.77234        -0.857035      0.066339     -0.261477
O       2.09026      5.74019      9.19493        -0.504597      0.064847     -1.690865
O      13.60844      5.69257      9.22306        -0.212681      0.190271     -0.477443
O       1.91761      9.49040      0.47301         0.027642      0.452756     -0.029057
O       2.14146      9.64651     13.46331        -0.223297     -0.193054     -0.715477
O      13.46788      9.48744      0.41722        -0.244983      0.370576      1.341619
O      13.66956      9.56080     13.49328         0.135931     -0.111564      0.212724
O       1.94371      9.64708      5.01195         0.434482      0.125439     -0.619247
O      13.48993      9.48226      4.76580        -0.117174      0.038041     -0.263172
O       1.89673      9.58972      9.13559         0.098262      0.085975      0.833766
O      13.61998      9.57794      9.14484        -0.197418     -0.045374      1.569165
O       5.88933      1.86288      0.38930        -0.589995     -0.078082      0.216407
O       5.82981      1.81038     13.63167         0.592296      0.369985      0.382452
O       5.64940     13.36499      0.34320         0.759324     -0.188185      0.489096
O       5.86772     13.30545     13.65542         0.122106      0.201024      0.014542
O       5.75287      1.80099      4.85214         0.025005     -0.078571     -1.908970
O       5.91164     13.44130      5.01945        -0.504708      0.356979      0.180699
O       5.93674      1.87444      9.31468        -0.199101      0.331197     -0.361863
O       5.98702     13.50210      9.29984        -0.321098      0.012958      0.597741
O       5.89838      5.85819      0.53792        -0.278757     -0.077692     -0.995665
O       5.99234      5.71491     13.52275         0.253796      0.045193     -1.241773
O       5.77561      5.63456      4.90541        -0.116448      0.257449     -1.409318
O       5.85059      5.58396      9.22010         1.278923     -0.139239      1.011134
O       5.59482      9.58397      0.58505         0.226794     -0.068467     -0.343117
O       5.89316      9.54534     13.49076         0.162138     -0.130747     -0.402207
O       5.61336      9.70806      5.14132         0.353038      0.268640     -1.689714
O       6.06273      9.61178      9.19541        -0.309161     -0.285947      0.275540
O       9.60989      1.78837      0.34109        -0.036338      0.040825     -0.961866
O       9.87693      1.85541     13.73067        -0.101962      0.192747     -0.705924
O       9.80583     13.31741      0.58384        -0.113542     -0.026636     -1.870826
O       9.78446     13.31680     13.50094         0.085459     -0.230242     -0.935340
O       9.69612      1.73465      4.83023         0.369559      0.015792     -1.448148
O       9.71898     13.59313      4.92051        -0.232704     -0.360274     -0.241434
O       9.81388      2.00620      9.42604        -0.206072     -0.158973     -1.242741
O       9.69951     13.47139      9.34962         0.166195      0.382391     -0.066508
O       9.55861      5.77191      0.49949        -0.277041      0.133000     -0.160228
O       9.86278      5.82304     13.69328        -0.123053     -0.121931     -0.151508
O       9.58969      5.70414      4.66764         0.551811      0.085778      0.012336
O       9.67978      5.62914      9.36900         0.086611      0.093959     -0.956034
O       9.54614      9.67635      0.59262         0.392893     -0.034066     -0.705410
O       9.82865      9.62799     13.62363        -0.169194      0.036970     -1.767057
O       9.70796      9.66071      4.83027        -0.078041     -0.340400     -0.795790
O       9.80862      9.36970      9.35136        -0.040764      0.279367     -0.431633
O       3.89139      1.88336      2.63092         1.372407      0.099249      0.095554
O       4.10058      1.93983     15.70552         0.265935      0.004290      0.983579
O       3.92879     13.38073      2.43600        -0.641406      0.229514      0.877985
O       4.07054     13.33725     15.75840         1.168824      0.086676      0.919297
O      15.37864      1.89597      2.69523         0.058600      0.012843      0.374946
O       0.29734      1.83642     15.79458         0.317861      0.048148      0.283848
O       0.05186     13.40157      2.66810         0.168862      0.000388      0.346690
O       0.36677     13.36697     15.78066        -1.512570      0.158140      0.409038
O       3.95257      1.79504      6.97026        -0.235117      0.113798      0.323481
O       3.98105     13.47464      7.14515        -0.950007     -0.078955      0.282597
O      15.37366      1.81343      6.93029         0.639351      0.555631      0.284521
O       0.15110     13.35560      7.03929        -0.783758      0.777556     -0.300186
O       3.98929      1.88707     11.38623        -1.361385      0.583839      0.134329
O       4.00527     13.33159     11.28175        -0.836618     -0.182432      0.489020
O       0.18806      1.85757     11.34732        -0.189439      0.087737      0.166424
O      15.49772     13.61618     11.22725         0.909089     -0.496961      0.967983
O       3.82627      5.69214      2.60060         0.814562      0.503091      0.608764
O       4.09608      5.75350     15.50527        -0.304371     -0.024796      1.074031
O      15.36764      5.80462      2.62574        -0.271310     -0.461522      0.299324
O       0.22037      5.67953     15.71714         0.870797     -0.003190      0.730348
O       3.99753      5.82488      7.06428        -0.077946     -0.667247     -0.171136
O       0.12394      5.74937      6.76946        -0.935196     -0.146141      0.990579
O       4.02878      5.67927     11.20023         0.260453      0.046898      1.198950
O      15.49693      5.72933     11.28677         0.549671      0.284895      0.672475
O       3.73008      9.63284      2.69739         1.955650     -0.130125      0.329507
O       4.01707      9.47082     15.66997         0.236217     -0.093591     -0.244425
O      15.39212      9.68658      2.67335        -0.228187     -0.595964      0.158525
O      15.51911      9.65950     15.75552         1.139117     -0.497893     -0.173392
O       3.93782      9.63364      7.26369        -0.316637      0.120926     -0.000437
O      15.38864      9.53101      6.99215         0.516333      0.264892      0.013256
O       4.00713      9.54421     11.37511         0.530768      0.681765     -0.221793
O      15.51170      9.52063     11.36896         0.065298      0.348395      0.437794
O       7.75675      1.98574      2.45604        -1.453699     -0.662634      0.779694
O       7.95728      1.98737     15.72356        -0.181936     -0.731524      0.174657
O       7.66989     13.46034      2.48632         0.390903     -0.701963      0.409508
O       7.97984     13.18118     15.75303        -0.852303      0.653508      0.348018
O       7.77439      1.80729      6.70866         0.640051      0.179772      0.970764
O       7.81358     13.47873      7.21387         1.325004      0.108117     -0.231871
O       7.86733      1.76521     11.61007         0.236732      0.328903     -0.079658
O       7.75010     13.42747     11.48343         1.259747      0.353354      0.391824
O       7.66649      5.77853      2.74230         0.187635      0.042778     -0.111715
O       7.94965      5.87715     15.73967        -0.875156     -0.447254      0.467148
O       7.81013      5.62626      6.84966         0.161325      0.127552      0.806118
O       7.89036      5.87680     11.41824        -0.978684     -0.305765      0.231505
O       7.72361      9.56646      2.67764        -0.964341      0.637933      0.118712
O       7.86472      9.53015     15.77191        -0.144153      0.375036     -0.109975
O       7.73400      9.46368      7.03668         1.678790      0.979125      0.142594
O       7.87374      9.48293     11.38976         0.192928     -0.137255      0.519334
O      11.56959      1.85032      2.51164        -0.572501      0.169622      0.479053
O      11.81657      1.78962     15.77441        -0.873845      0.258876      0.251744
O      11.51571     13.44099      2.77127         1.334628     -0.139916      0.176434
O      11.76782     13.36360     15.59537         0.820013      0.369139      0.154558
O      11.60229      2.01979      7.03561         0.235512     -0.798636      0.073625
O      11.67912     13.46096      7.03009        -0.423741     -0.278663      0.396284
O      11.64930      2.04902     11.54464         0.761686     -0.144942      0.256032
O      11.70696     13.39927     11.31137        -0.828091     -0.232086      0.986439
O      11.47867      5.60278      2.51213         1.462220      0.927120      0.799173
O      11.73232      5.75556     15.71190         1.035006     -0.076867      1.017173
O      11.58112      5.72863      6.90747        -0.025159      0.261436     -0.188691
O      11.72156      5.72474     11.42896         0.320959      0.001492      0.493031
O      11.57152      9.46834      2.67436        -0.752647      0.543143      0.195609
O      11.82179      9.46671     15.68810        -1.441846      0.448909      0.613427
O      11.55583      9.63796      7.03856         0.912441     -0.700722     -0.166927
O      11.73606      9.52984     11.45249         0.123600      0.535444      0.054079
O       1.94213      3.77700      2.63438        -0.223439      1.027219      0.691871
O       2.23855      3.83182     15.74290        -0.224115      0.223290      0.887522
O       1.97433     15.34695      2.65583         0.147275     -0.569127      0.405390
O       2.31860      0.01621     15.62046        -0.055998     -0.903881      0.747611
O      13.40766      3.85884      2.65301         0.584343     -0.176181      0.128211
O      13.80105      3.72098     15.80655        -0.739115      1.404403      0.466543
O      13.53283     15.32999      2.69932        -0.065508     -0.189206      0.018010
O      13.72052     15.32764     15.67777         0.364663     -1.669276      0.720647
O       2.13671      3.80965      6.90446        -0.464126      0.157099      0.480189
O       2.02347     15.35023      6.98705        -0.055468      0.012582      0.449466
O      13.55080      3.82819      7.00770         0.065030      0.296976     -0.309424
O      13.52308     15.35070      7.05882        -0.054358     -0.230436     -0.181433
O       2.08604      3.85116     11.20847        -0.025569     -0.262386      0.805014
O       2.19170      0.00441     11.20577         0.036533     -0.298776      0.380362
O      13.70457      3.84329     11.39741        -0.271473      0.800932      0.612678
O      13.43688      0.07453     11.33319         0.479580      0.017645      0.336134
O       1.95569      7.69448      2.65397         0.034199     -0.128228      0.383896
O       2.05890      7.67129     15.76032         0.182945     -0.125059     -0.276927
O      13.49752      7.70431      2.63341        -0.200972     -0.975522      0.313808
O      13.74533      7.63440     15.78828        -0.193694      0.348604     -0.094870
O       2.03186      7.68506      6.98676         0.140486     -0.319614      0.504920
O      13.54437      7.67581      7.02058        -0.383970     -0.781966     -0.326887
O       2.18448      7.72823     11.15205        -0.243370     -1.509854      0.880571
O      13.73124      7.67278     11.30425        -0.509411     -0.142358      0.401046
O       1.91793     11.52715      2.68741         0.407051      0.527387      0.232163
O       2.19005     11.43830     15.77294        -0.014929     -0.178375      0.133955
O      13.49750     11.43567      2.58503        -0.587801      1.036720      0.346069
O      13.66342     11.46680     15.69646         0.047320      1.044074      0.133209
O       2.01959     11.53276      7.06989         0.260592      0.027743      0.081520
O      13.60836     11.50821      6.95387        -0.541084     -0.244743      0.057835
O       2.08561     11.43941     11.32223        -0.267547      1.373833      0.396639
O      13.69272     11.58627     11.31123        -0.022616     -1.280717      0.469439
O       5.85810      3.94196      2.66574        -0.593390     -1.867124     -0.213884
O       6.01936      3.79684     15.73671         0.233305      0.991796      0.155730
O       5.84083     15.29044      2.53787        -0.264960      1.040045      0.196867
O       6.00714     15.30621     15.62542         0.497163     -0.577489      0.904449
O       5.97114      3.72270      7.02101        -0.628284      1.082321      0.239263
O       5.98202      0.01773      7.18946        -0.716221      0.084624     -0.137220
O       6.06185      3.70377     11.51838        -0.114397      1.538345     -0.085030
O       5.83213      0.00390     11.53887         0.238225     -1.062935      0.041060
O       5.81976      7.68914      2.77575        -0.832387      0.604485     -0.239748
O       5.94508      7.61555     15.62305         0.472498      0.481885      0.511575
O       5.91393      7.69517      7.10040        -0.063093     -1.155953      0.099904
O       5.88098      7.63692     11.32467         0.333024     -0.250045      0.291110
O       5.71464     11.53052      2.76633         0.366241     -0.935687     -0.348537
O       5.93113     11.40184     15.65075         0.132192     -0.174836      0.700624
O       6.05378     11.60735      7.30090        -1.127144     -0.540844     -0.389516
O       6.08538     11.44294     11.40398        -0.690822      0.108285      0.095315
O       9.65544      3.73911      2.43793        -0.195080      0.478906      0.793663
O       9.91746      3.82946     15.81694        -0.371849     -0.029810      0.311168
O       9.66598     15.32769      2.48459        -0.371817      0.474177      0.821017
O       9.82082     15.19919     15.66486        -0.336250      0.695509      0.591106
O       9.76799      3.74481      6.69840        -0.338928      1.910551      0.922206
O       9.77420      0.02628      7.02658         0.304441     -0.629244      0.728463
O       9.78347      3.87222     11.58309        -0.513865     -0.860729      0.438999
O       9.89354     15.34866     11.61028        -0.485871     -0.437148     -0.427552
O       9.60919      7.63189      2.63206         0.187710      0.830727      0.531113
O       9.93668      7.72369     15.64947        -0.434387      0.053624      0.774053
O       9.63501      7.68969      6.90723         0.629451     -1.219959      0.156061
O       9.86237      7.60412     11.42806         0.004040      0.733310      0.876428
O       9.64805     11.57031      2.67979        -0.148355     -1.429279      0.599057
O       9.97731     11.50467     15.84335        -0.537727     -1.379487     -0.091602
O       9.78539     11.50771      6.95074        -0.506236      0.570636      0.413863
O       9.75000     11.52426     11.30288        -0.011288     -0.871928      0.855826
