  # total energy = -7887.35402760 
CRSYTAL
PRIMVEC
    15.3600000000000000    0.0000000000000000    0.0000000000000000
     0.0000000000000000   15.3600000000000000    0.0000000000000000
     0.2400000000000000    0.0000000000000000    17.440000000000000
PRESSURE
0.36114 0.306185 -3.14541 -0.111367 -1.16149 0.00914
PRIMCOORD
320 1
Pb       3.89175      3.82813      4.32454         0.150043     -0.142825     -0.543584
Pb       4.06942      3.81961     17.40132        -0.133077     -0.060694     -0.015173
Pb       3.90452     15.32451      4.33020        -0.171867      0.179999     -0.116391
Pb       4.05277     15.34655     17.41777         0.007712     -0.209650     -0.411155
Pb      15.39255      3.81843      4.31271        -0.193449     -0.001384     -0.283275
Pb      15.59502      3.82184     17.41789         0.055311      0.061454     -0.319409
Pb      15.39517     15.35658      4.33414         0.015922     -0.045380      0.027347
Pb      15.55811     15.33600     17.42325         0.345987      0.023280     -0.238810
Pb       3.96343      3.79709      8.67216        -0.257393     -0.231131      0.017564
Pb       3.93157     15.34542      8.72522        -0.146804      0.024548     -0.145522
Pb      15.44964      3.82521      8.66930        -0.143205     -0.086451     -0.135138
Pb      15.46218     15.34346      8.69154         0.079197      0.099658     -0.212622
Pb       3.98327      3.81576     13.04585         0.009945     -0.266995     -0.161481
Pb       4.01065     15.34096     13.06059         0.000895      0.123944     -0.389339
Pb      15.52846      3.82263     13.05291        -0.311872     -0.000231     -0.292999
Pb      15.52847      0.00833     13.04342         0.194729      0.015792     -0.466177
Pb       3.86174      7.66412      4.32072         0.486675      0.015593      0.147003
Pb       4.04918      7.66012     17.39697         0.082512     -0.209347     -0.279247
Pb      15.39782      7.66083      4.32181        -0.513316      0.099291     -0.148870
Pb      15.57797      7.67977     17.40047         0.182921     -0.509771      0.050979
Pb       3.92867      7.66353      8.69691        -0.100459      0.236590     -0.365678
Pb      15.45723      7.66829      8.69374         0.107180     -0.183631     -0.049838
Pb       4.00605      7.67527     13.00600        -0.183179      0.258217      0.227600
Pb      15.48843      7.65965     13.06236         0.037374      0.004828     -0.640718
Pb       3.86730     11.50322      4.32557        -0.148755     -0.100092      0.022673
Pb       3.83454     11.50604      0.00012        -0.027438      0.366092     -0.354045
Pb       0.06408     11.51090      4.31274         0.212336     -0.139572      0.229853
Pb      15.59046     11.48695     17.40335         0.424601      0.387502      0.060926
Pb       3.92555     11.50572      8.70653        -0.138110      0.027083     -0.370429
Pb      15.46273     11.48479      8.68622        -0.024074      0.195226     -0.486910
Pb       3.99414     11.49985     13.05349         0.175418     -0.089552     -0.180144
Pb      15.53802     11.50720     13.03842         0.129416     -0.103777     -0.267461
Pb       7.71145      3.82009      4.31294        -0.028713     -0.415743     -0.345997
Pb       7.91947      3.84482     17.41922        -0.079182     -0.189631     -0.436867
Pb       7.71839     15.35654      4.32178        -0.103120      0.328095     -0.022428
Pb       7.89190     15.32432     17.38466        -0.338243      0.244198     -0.166364
Pb       7.77674      3.81909      8.68496         0.119233      0.074579     -0.312819
Pb       7.79559     15.35075      8.69270         0.001963     -0.104262     -0.121890
Pb       7.84220      3.78871     13.05833         0.063758      0.103297      0.034234
Pb       7.83295     15.33935     13.05425        -0.091130     -0.328657     -0.234752
Pb       7.72029      7.67856      4.30934        -0.111327      0.112758     -0.054597
Pb       7.89416      7.65535     17.42252        -0.338558      0.005980     -0.394599
Pb       7.79828      7.65920      8.70870        -0.171973      0.087625     -0.580563
Pb       7.84136      7.64975     13.05458        -0.098903      0.154652     -0.190501
Pb       7.70007     11.50337      4.32065        -0.013584     -0.219317     -0.201398
Pb       7.89134     11.49119     17.41453        -0.299204     -0.109383     -0.363282
Pb       7.78690     11.51583      8.70827         0.181516     -0.167960     -0.274206
Pb       7.84095     11.49613     13.04548         0.079687      0.112219     -0.014688
Pb      11.56186      3.82092      4.30574        -0.204846     -0.083973      0.018086
Pb      11.74301      3.82955     17.41026        -0.160732     -0.292434     -0.564669
Pb      11.56080     15.34175      4.33917        -0.254907     -0.005770     -0.547000
Pb      11.75987     15.31283     17.37835        -0.473705      0.394413      0.228731
Pb      11.61114      3.81553      8.68802         0.053666      0.278641     -0.479518
Pb      11.60602     15.33520      8.70380        -0.275179     -0.069836     -0.120347
Pb      11.68683      3.83903     13.06430         0.079985     -0.199003     -0.195288
Pb      11.68704     15.34459     13.05081        -0.250093     -0.078568     -0.423502
Pb      11.56134      7.66436      4.35414        -0.030446     -0.232433     -0.429522
Pb      11.75139      7.66136     17.41145        -0.069844     -0.168864     -0.466497
Pb      11.60902      7.65363      8.66931         0.044789     -0.526473      0.028752
Pb      11.67882      7.64213     13.06839        -0.024611     -0.034260     -0.535304
Pb      11.55295     11.49938      4.31729        -0.420329      0.281621     -0.138808
Pb      11.73659     11.48611     17.41316        -0.209092      0.025075     -0.385323
Pb      11.62602     11.50588      8.67657        -0.275169      0.243921     -0.099818
Pb      11.68779     11.51768     13.04054        -0.543990      0.155568     -0.240716
Ti       1.89838      1.89683      2.33662         0.852774     -0.017144     -0.690211
Ti       2.09122      1.89187     15.42349         0.639257      0.083620     -0.188327
Ti       1.92403     13.41463      2.33625         0.102683      0.059608     -0.957938
Ti       2.07067     13.40965     15.39573         1.014045      0.567839     -0.406574
Ti      13.46387      1.91019      2.33473        -0.598600     -0.164310     -0.487106
Ti      13.62185      1.88643     15.42208        -0.135983      0.856161     -1.710423
Ti      13.48415     13.41243      2.32750        -0.451459      0.738463      0.461038
Ti      13.58612     13.42441     15.37655         0.563118     -0.061723      0.220322
Ti       2.02778      1.90798      6.63934        -0.889107     -0.551093      0.190508
Ti       1.97672     13.40387      6.68725         0.378718      0.375728     -0.276908
Ti      13.51410      1.87294      6.66908         0.088459      0.690107      0.046449
Ti      13.43820     13.43500      6.67655         0.933145     -0.118794     -0.185706
Ti       2.02993      1.93709     11.04413         1.067446     -0.717067     -0.846816
Ti       2.09126     13.38045     11.02483         0.134510      0.901494      0.658680
Ti      13.54913      1.87639     11.00063        -0.075945      0.049194     -0.465399
Ti      13.60560     13.36676     11.05187        -0.193776      1.432020     -1.293067
Ti       1.90499      5.77260      2.34077         0.139328     -0.944021     -1.599405
Ti       2.08638      5.74832     15.37610         0.185034     -0.760041      0.939967
Ti      13.41082      5.72481      2.29062         0.849814      0.516156      0.552608
Ti      13.63046      5.75432     15.37254        -0.052788     -0.918113      0.119121
Ti       1.99947      5.70399      6.67631         0.244417      0.677456      0.835660
Ti      13.53700      5.76238      6.66091        -0.283042     -0.568946     -0.605455
Ti       2.07748      5.76808     11.01525        -0.955190      0.132033      0.520555
Ti      13.55444      5.73315     11.04899         0.139469     -0.249692     -1.131953
Ti       1.95000      9.53394      2.36219        -0.198311      1.112441     -1.528250
Ti       2.10439      9.60560     15.40199         0.962168     -0.274181     -0.716524
Ti      13.45244      9.64034      2.33266         0.491894     -1.296005      1.824886
Ti      13.68046      9.62665     15.41046        -1.027065     -0.692264     -2.330307
Ti       1.97205      9.54975      6.69436         0.175851      0.226338     -0.944842
Ti      13.50728      9.57093      6.64365         0.637087      0.328355     -0.464596
Ti       2.02927      9.60232     11.01193         0.713850     -0.651761     -0.914125
Ti      13.54284      9.58167     11.03434         0.045085     -0.771196      1.226170
Ti       5.73338      1.87417      2.31263         0.595708      0.688529      0.493745
Ti       5.93816      1.90326     15.43191         0.070992     -0.495726     -0.778141
Ti       5.74106     13.43495      2.36596        -0.033155      0.002544     -1.813966
Ti       5.95706     13.38984     15.36595        -1.118509      0.690974      0.195795
Ti       5.82198      1.87571      6.71228         0.317977     -0.194325     -1.842436
Ti       5.84142     13.37061      6.67830        -0.301371      1.050921     -1.047268
Ti       5.96781      1.92994     11.01553        -1.742412     -0.752965     -0.953981
Ti       5.89990     13.40285     11.00805        -0.023576      0.212033      0.104132
Ti       5.78003      5.74428      2.31529        -0.206286     -0.133471     -1.422700
Ti       5.91246      5.73571     15.38228         0.170777     -0.242920      0.049195
Ti       5.79009      5.73312      6.68032         0.600005      0.657855     -1.248722
Ti       5.87239      5.75885     11.02557         0.088990     -0.175118      1.995453
Ti       5.76838      9.59518      2.28188         0.487635      0.035485     -0.263058
Ti       5.93269      9.58944     15.44054         0.429220     -0.042192     -0.551874
Ti       5.81560      9.60501      6.66836         0.248036     -1.042864     -0.955223
Ti       5.89816      9.58470     11.00554        -0.429182      0.248193     -0.041443
Ti       9.62339      1.90305      2.29753        -0.323429     -0.325662     -0.439692
Ti       9.78835      1.87108     15.39994        -0.398642      0.925916     -0.126649
Ti       9.56713     13.43159      2.29624         0.189391      0.080091     -0.133786
Ti       9.77665     13.39687     15.43370        -0.423829     -0.001045     -1.840714
Ti       9.66457      1.88288      6.67596        -0.130717     -0.275724     -1.283381
Ti       9.61363     13.39044      6.62187         0.692075      0.383595     -0.008266
Ti       9.71609      1.89049     11.03052         1.158763     -0.481594     -0.262618
Ti       9.72628     13.42457     11.01312        -0.100383     -0.115749     -0.254182
Ti       9.63717      5.76130      2.26432        -0.484049     -0.640467      0.114620
Ti       9.79596      5.77678     15.39076         0.214403     -1.297854     -0.504423
Ti       9.64569      5.74243      6.68438         0.299635     -0.180328     -0.269715
Ti       9.70186      5.72144     11.04701         0.560738      0.332395     -1.357068
Ti       9.63924      9.58388      2.27851        -1.004513     -0.050797     -0.581435
Ti       9.81462      9.56232     15.38501        -0.584582      0.313171     -0.106626
Ti       9.71419      9.58656      6.69203        -1.408693      0.245837     -1.070864
Ti       9.69447      9.59231     11.01443         0.610475      0.140086     -0.571026
O       1.94872      1.94353      0.56079        -0.305459     -0.233355     -0.104775
O       2.07008      1.89666     13.65943         0.007925     -0.070833     -0.830067
O       1.89233     13.40261      0.52606        -0.081889     -0.025967      0.584281
O       2.09755     13.43895     13.59238        -0.194250     -0.254350      0.573946
O      13.40535      1.87657      0.56352         0.091765      0.069702     -0.453057
O      13.57528      1.94728     13.56734         0.217305     -0.372829      1.233208
O      13.51717     13.37069      0.58067        -0.366244     -0.008256     -0.513037
O      13.56579     13.38907     13.63135         0.160785      0.095317     -0.546676
O       1.92615      1.94519      4.85810         0.143091     -0.098608      0.130570
O       1.98737     13.43537      4.92086        -0.051126     -0.121082     -0.338333
O      13.52553      1.86709      4.88391         0.045153      0.197761     -0.227416
O      13.49620     13.44522      4.88869        -0.315027     -0.014928      0.354371
O       2.09915      1.86853      9.24559        -0.176863      0.305402      0.658875
O       2.14796     13.40043      9.27592        -0.115209     -0.205175     -0.836948
O      13.58297      1.81628      9.17959        -0.238568      0.424638      1.163759
O      13.63814     13.45502      9.23304        -0.336004     -0.382456      0.592509
O       1.90244      5.71140      0.51708        -0.051233      0.372066      0.997739
O       2.14211      5.75271     13.64043        -0.261226     -0.123226     -0.639972
O      13.44381      5.75462      0.53461        -0.185806      0.029116     -0.390569
O      13.56706      5.69247     13.59748         0.188107      0.243569     -0.187018
O       2.06599      5.76829      4.94646        -0.418359     -0.242641     -1.226045
O      13.54937      5.73189      4.84763        -0.057809      0.191130      0.866558
O       2.03167      5.76802      9.26036         0.207878     -0.125205     -0.215999
O      13.52461      5.78122      9.23315        -0.002789     -0.248510      0.265291
O       1.86107      9.59987      0.50707         0.182133     -0.272904      0.800001
O       2.11792      9.61064     13.61995        -0.273363      0.134175      0.406182
O      13.48021      9.57203      0.63234        -0.237441      0.181039     -2.209576
O      13.63519      9.54161     13.54662         0.098065      0.242019      1.348202
O       1.94797      9.65111      4.85873         0.055916     -0.444975      0.756236
O      13.55612      9.57435      4.86755        -0.280053     -0.053619     -0.046506
O       2.05574      9.54601      9.19673        -0.017642      0.196897      0.214569
O      13.57385      9.55212      9.32092        -0.103701      0.195307     -1.218012
O       5.76941      1.96281      0.57388         0.066907     -0.426791     -1.039941
O       5.92059      1.88440     13.64292         0.272755     -0.014949     -0.762572
O       5.63461     13.44809      0.50823         0.380572     -0.039254      1.421524
O       5.86146     13.45126     13.58610         0.294515     -0.107723      0.086539
O       5.85691      1.92039      4.84128        -0.231507      0.045228      1.566604
O       5.80929     13.38987      4.85843        -0.062390     -0.050858      0.674445
O       5.88055      1.85668      9.19243         0.100756      0.343257      0.800782
O       5.83705     13.43747      9.22881         0.093695     -0.301975     -0.368532
O       5.77947      5.73836      0.46738        -0.074760      0.212993      1.142680
O       5.85890      5.77879     13.58776         0.403977     -0.216776      0.461345
O       5.79573      5.79107      4.86998        -0.004067     -0.179208      0.225332
O       5.89232      5.73033      9.34129        -0.134426     -0.014239     -2.414826
O       5.74397      9.62629      0.48744         0.081731     -0.107374     -0.032815
O       5.94617      9.58046     13.68023         0.045666      0.034694     -0.824623
O       5.79747      9.53747      4.85372         0.133993      0.246628      0.692304
O       5.83923      9.57956      9.23536         0.156469      0.104543     -0.159856
O       9.65344      1.91990      0.48136        -0.217981     -0.068465      0.781995
O       9.77572      1.86433     13.60459        -0.120107     -0.059336     -0.165241
O       9.57405     13.51835      0.49824        -0.159675     -0.559022     -0.041071
O       9.79500     13.45188     13.60368        -0.073810      0.174912      1.150525
O       9.58595      1.91376      4.83542         0.334738     -0.184257      1.566761
O       9.66031     13.43680      4.84174         0.013565     -0.348326     -0.069855
O       9.69682      1.77727      9.27195         0.016087      0.413703     -0.529103
O       9.70810     13.47113      9.23027        -0.007721     -0.502168      0.014420
O       9.60580      5.69489      0.48261         0.181448      0.251843      0.271404
O       9.79463      5.72408     13.58270        -0.097518      0.195718      0.262207
O       9.62629      5.77926      4.89960         0.113070     -0.191361      0.458028
O       9.69142      5.72340      9.18811         0.117685      0.152018      1.030687
O       9.58896      9.53212      0.45452         0.222127      0.269277      0.707005
O       9.73546      9.61886     13.62152         0.297024     -0.443662     -0.119841
O       9.57423      9.62300      4.86544         0.582203     -0.152314      0.999725
O       9.65520      9.61792      9.20152         0.127636     -0.092901      0.350476
O       3.88721      1.84365      2.64768        -0.743363      0.121620      0.606318
O       4.05712      1.85988     15.74776        -0.834827      0.176492      0.504790
O       3.80910     13.38689      2.76376         0.685659      0.145395      0.045650
O       4.02124     13.46186     15.74366        -0.392304     -0.222146      0.244510
O      15.36457      1.87383      2.62440         0.003240      0.267891      0.580961
O       0.21811      1.84508     15.77630        -1.086340      0.088891      0.405865
O       0.05921     13.39582      2.70944        -0.979452      0.196512      0.231999
O      15.52346     13.36807     15.78453        -0.138161      0.231608      0.055255
O       3.91696      1.82964      7.04592         0.145573      0.318153      0.049848
O       3.94389     13.37201      7.00157         0.061624      0.316346      0.471730
O      15.42091      1.89113      7.08586         0.392719      0.471322     -0.066696
O       0.15855     13.44771      7.02984        -1.537024     -0.193091      0.466418
O       3.99627      1.92031     11.37428         0.197566     -0.090844      0.384112
O       4.01076     13.34591     11.41931        -0.162006      0.010192      0.215061
O       0.17575      1.91205     11.38601        -0.893505     -0.075011      0.292829
O       0.18383     13.39489     11.37221        -0.593631     -0.180836      0.498869
O       3.82479      5.76438      2.69605         0.342716      0.201333      0.188604
O       4.06319      5.69417     15.83070        -0.356905      0.214405     -0.090959
O      15.37883      5.75591      2.63622         0.205598     -0.265439      0.534522
O      15.53745      5.70533     15.80927         0.337542      0.331788     -0.059566
O       3.96098      5.74433      7.00041        -1.036372     -0.155965      0.719867
O       0.11614      5.71286      7.09400        -0.517808     -0.054229     -0.099646
O       3.94581      5.81753     11.48062         0.471245     -0.437615     -0.344810
O      15.48911      5.68829     11.39170         0.546987      0.325886      0.423536
O       3.89691      9.55438      2.69721        -0.619995      0.265227     -0.006660
O       4.04777      9.62651     15.70651        -1.087528     -0.199209      0.683859
O       0.07132      9.52933      2.67853        -1.021745      0.477395      0.312927
O      15.52943      9.61359     15.68790         0.290709     -0.178959      0.668181
O       3.90563      9.44885      6.98823        -0.081239      0.789744      0.404309
O      15.43746      9.56048      7.07108        -0.215046     -0.092159      0.228229
O       3.97965      9.55981     11.37989         0.529471      0.300134      0.227702
O       0.20185      9.59713     11.36292        -1.718104      0.029590      0.489493
O       7.71210      1.88619      2.74711         0.099021     -0.007453     -0.267016
O       7.86160      1.94490     15.72464         0.489480     -0.378169      0.501122
O       7.60638     13.36879      2.72531         1.232453      0.510038     -0.148031
O       7.83974     13.37935     15.71183         0.451809      0.465178      0.496807
O       7.75235      1.90400      7.09527         0.319726      0.100734      0.086901
O       7.80216     13.38280      7.00112        -1.118382     -0.014682      0.365613
O       7.88706      1.89204     11.36550        -1.344058      0.293631      0.636554
O       7.76754     13.35685     11.40778         0.702349      0.440099      0.200929
O       7.69473      5.69346      2.61465         0.214171      0.310506      0.261606
O       7.93626      5.74643     15.76684        -1.008443      0.128653      0.021288
O       7.77023      5.75768      7.08339        -0.183579     -0.253864      0.198760
O       7.83124      5.70481     11.39400        -0.381729      0.040782      0.401432
O       7.74986      9.45379      2.69794        -0.104349      0.699632     -0.178360
O       7.86140      9.60733     15.71565         0.468726     -0.424731      0.731018
O       7.72614      9.57648      7.01741         0.314990     -0.051497      0.428592
O       7.87660      9.67982     11.41690        -0.882134     -0.682773      0.178173
O      11.55783      1.92836      2.68238        -0.260757     -0.198981      0.439335
O      11.70777      1.94694     15.74453         0.400193     -0.361290      0.328010
O      11.46121     13.44509      2.67820         1.289894     -0.461577      0.113959
O      11.66251     13.44173     15.75041         0.556907     -0.361191      0.528328
O      11.59955      1.84642      7.03064        -0.464682      0.120175      0.199772
O      11.57537     13.34602      7.11472         0.833923      0.205396     -0.282947
O      11.60016      1.90014     11.37156         1.367289     -0.269088      0.198166
O      11.65052     13.38659     11.43040         0.842166      0.319442      0.062451
O      11.53555      5.74658      2.73072        -0.299793     -0.186064     -0.045727
O      11.75567      5.73444     15.78322        -0.543647     -0.115493      0.309532
O      11.62774      5.71561      7.02377        -0.521112      0.429939      0.215887
O      11.66855      5.82666     11.38900        -0.536654     -0.352460      0.376682
O      11.50187      9.61927      2.73096         0.801041     -0.180580     -0.028226
O      11.77689      9.62032     15.79503        -0.505450     -0.153320      0.364540
O      11.60540      9.60391      7.01033         0.115179      0.088175      0.226473
O      11.61219      9.53356     11.37216         0.888611      0.299531      0.252531
O       1.97830      3.78070      2.69233        -0.229159      0.841802      0.484816
O       2.09989      3.80243     15.77818         0.054500      0.243224      0.215331
O       1.93530     15.34875      2.73267        -0.020033     -0.436956      0.109578
O       2.08929      0.00099     15.80420        -0.095167     -0.910990      0.255205
O      13.45801      3.85727      2.69692         0.170163     -0.575673      0.262667
O      13.66597      3.79287     15.75109         0.004558     -0.044470      0.421479
O      13.45430      0.00138      2.67118         0.092302     -0.842272      0.327565
O      13.58935     15.32654     15.74363         0.208589     -0.178279      0.296172
O       2.03701      3.79847      7.09903         0.073950      0.088581      0.022458
O       1.95194      0.02625      7.10572         0.575084     -0.421442     -0.175195
O      13.44609      3.85431      7.00501         0.532705     -0.322781      0.365753
O      13.54626      0.01715      7.00096        -0.177145     -1.420107      0.259691
O       2.05428      3.83139     11.43705         0.289810      0.222253      0.054041
O       2.07240     15.29131     11.40585         0.058123      0.571208      0.299300
O      13.58747      3.82041     11.43787        -0.244573     -0.802659     -0.151261
O      13.62714     15.33641     11.39297        -0.185191      0.216805      0.391010
O       1.86899      7.67786      2.70263         0.642896     -0.520409      0.172061
O       2.15085      7.61997     15.68678        -0.264297      0.982103      0.656497
O      13.49408      7.63416      2.71094        -0.389187      0.763267      0.172866
O      13.59710      7.60977     15.72870         0.435204      1.450123      0.447392
O       1.98875      7.62216      7.08871        -0.018782      0.129346      0.010210
O      13.53211      7.69531      7.04568        -0.097017     -0.403746      0.146533
O       2.05417      7.71295     11.44051        -0.147212     -0.834733      0.154411
O      13.59504      7.58444     11.37878         0.295134      1.850067      0.607776
O       1.92063     11.49518      2.71296         0.218136     -0.206214      0.144362
O       2.11097     11.51212     15.76460        -0.153458     -0.261420      0.199181
O      13.47906     11.51748      2.73477        -0.136001     -0.121195      0.025422
O      13.55937     11.52145     15.74755         0.310187     -0.385218      0.471405
O       1.96634     11.47161      7.02817         0.405744     -0.058929      0.488188
O      13.58566     11.48782      7.00805        -0.196252      0.265350      0.431420
O       2.05126     11.46378     11.38420         0.223277      0.512549      0.412189
O      13.55584     11.54873     11.41104         0.233381     -1.533822      0.175331
O       5.74689      3.83586      2.57876        -0.021731      0.332926      0.790836
O       5.92369      3.76249     15.73687         0.314441      1.613731      0.293620
O       5.79093     15.35910      2.75851        -0.084161     -0.878113     -0.063948
O       5.92509     15.35873     15.82450         0.522681     -0.716653      0.132634
O       5.77306      3.82878      7.03803         0.449039     -0.309148      0.416112
O       5.94529      0.00273      7.02928        -0.470074     -0.706173      0.109261
O       5.86562      3.81697     11.36900         0.373762     -0.068265      0.358724
O       5.91177     15.33369     11.36418         0.139853      0.409481      0.340271
O       5.78945      7.73494      2.61472        -0.049998     -1.382057      0.297778
O       5.91253      7.66449     15.76694         0.237333     -0.493613      0.348504
O       5.79278      7.63994      7.06248         0.529657      0.111484      0.396661
O       5.91682      7.67280     11.36965         0.430937      0.103863      0.348861
O       5.86772     11.51267      2.60342        -0.523786     -0.469222      0.514358
O       5.90345     11.52302     15.81553         0.277945      0.005873      0.152445
O       5.85708     11.51559      6.99886        -0.156136     -0.621521      0.428712
O       5.99593     11.47297     11.40372        -0.728408     -0.137125      0.115448
O       9.61173      3.75181      2.73917         0.226602      1.220413     -0.162664
O       9.78017      3.81272     15.75717         0.289313      0.299637      0.194680
O       9.62961     15.29843      2.69695        -0.237484      0.604194      0.080188
O       9.79674      0.01188     15.83545        -0.129651     -0.711287     -0.060924
O       9.67339      3.75766      7.09492         0.112295      0.558022      0.013402
O       9.70638     15.25887      7.07509        -0.090970      1.087057     -0.101862
O       9.84588      3.85445     11.35955        -0.586201     -0.513819      0.290963
O       9.75925     15.26484     11.31659        -0.232981      1.444685      0.908818
O       9.65095      7.61059      2.65812         0.205819      0.385576      0.045181
O       9.84267      7.64431     15.75445         0.083382      0.419759      0.239249
O       9.69499      7.68690      7.02639         0.078580     -0.297506      0.291768
O       9.72773      7.66679     11.40778        -0.308788      0.133326      0.143468
O       9.59488     11.49845      2.61781        -0.037040     -0.331844      0.119264
O       9.68096     11.46808     15.62682         0.865291      0.630372      1.063229
O       9.65012     11.51879      7.08633         0.332788     -0.774646      0.123829
O       9.77802     11.57602     11.41727        -0.034776     -1.601626      0.210309
