  # total energy = -7881.39722810 
CRSYTAL
PRIMVEC
    15.3600000000000000    0.0000000000000000    0.0000000000000000
     0.0000000000000000   15.3600000000000000    0.0000000000000000
     0.2400000000000000    0.0000000000000000    17.440000000000000
PRESSURE
0.92438 0.423056 -0.542736 0.08395 -0.67205 0.044612
PRIMCOORD
320 1
Pb       3.92029      3.85094      4.33670        -0.577984      0.196085     -0.793361
Pb       4.02916      3.78373     17.39837         0.165525      0.389469     -0.461090
Pb       3.86031     15.29051      4.37743        -0.117941      0.057729     -0.796657
Pb       3.76810      0.06619      0.02913         0.179960     -0.362578     -0.326182
Pb      15.41769      3.74907      4.29635         0.254526      0.144848     -0.512532
Pb      15.57953      3.79747     17.39808        -0.165532      0.187049     -0.635501
Pb      15.32914     15.34172      4.32390         0.398018     -0.118170     -0.669393
Pb      15.43662     15.29404     17.41866         0.622458      0.172174     -0.905311
Pb       3.93821      3.89609      8.66074         0.256402     -0.542199     -0.201971
Pb       3.85536     15.28769      8.71741        -0.134213      0.111584     -0.574010
Pb       0.22284      3.86763      8.72051        -0.287577      0.284817      0.013749
Pb      15.39764      0.03157      8.75595         0.650452     -0.581177     -0.742247
Pb       3.94964      3.92737     13.02299        -0.049375     -0.922589      0.111104
Pb       4.01328     15.28154     13.17231        -0.355704      0.346213     -0.212231
Pb       0.20311      3.76868     13.05542        -0.175626      0.247870      0.193025
Pb      15.47631     15.27023     13.12901         0.132894      0.325729      0.283634
Pb       3.84445      7.56545      4.28635        -0.308179      0.096918     -0.174264
Pb       4.03056      7.48582     17.38336         0.353901      0.219908     -0.126144
Pb      15.37678      7.60213      4.31620         0.139458      0.273347     -0.579691
Pb      15.57155      7.61675     17.26219        -0.497559      0.025112      0.352449
Pb       3.92659      7.69894      8.67411         0.331171      0.135272     -0.110612
Pb       0.16895      7.69732      8.77114        -0.136231     -0.191783     -0.387576
Pb       4.11575      7.64022     12.98100        -0.558733      0.254994     -0.250296
Pb      15.37474      7.62740     13.13351         0.658557     -0.221224     -0.169810
Pb       3.80972     11.45605      4.26246         0.105046      0.283576     -0.193664
Pb       3.89809     11.49222      0.14513         0.204888      0.064047     -0.816967
Pb       0.10320     11.54157      4.20487         0.024014     -0.057130     -0.058917
Pb      15.58584     11.47474     17.37252        -0.511303      0.234345      0.291496
Pb       3.94041     11.51306      8.67980         0.290553      0.103998     -0.242045
Pb      15.46761     11.38736      8.68487         0.055821      0.565778     -0.158973
Pb       3.88653     11.45472     13.14187         0.243519      0.444565     -0.310926
Pb      15.37450     11.53577     13.15079         0.313810      0.171735     -0.245478
Pb       7.67662      3.75102      4.40616         0.129718      0.201182     -0.692742
Pb       7.76388      3.86533      0.02457        -0.919109      0.449002      0.004785
Pb       7.78067      0.06544      4.34330        -0.306291     -0.071499     -0.494063
Pb       8.04996      0.11852     17.40817        -1.159439     -0.650229      0.542920
Pb       7.74928      3.88630      8.65054        -0.079542     -0.748056     -0.395908
Pb       7.80742     15.23305      8.60136        -0.228238      0.091903      0.148665
Pb       7.74346      3.74939     13.01118         0.001812      0.038289     -0.500043
Pb       7.70288      0.07665     12.94037         0.598900     -0.325902     -0.216484
Pb       7.74812      7.69752      4.38838        -0.098598     -0.035393     -0.568563
Pb       7.71683      7.61960      0.01759        -0.167891      0.511684     -0.236939
Pb       7.79464      7.68185      8.72308        -0.177830      0.472679     -1.036401
Pb       7.84891      7.72774     12.98582        -0.351165     -0.130672     -0.520766
Pb       7.71025     11.44616      4.25127        -0.198086      0.355529     -0.168179
Pb       7.66782     11.54241      0.07248        -0.243849     -0.232135     -0.312413
Pb       7.75190     11.48643      8.65031        -0.155470     -0.153377     -0.208220
Pb       7.79781     11.48412     13.09073         0.217578      0.149432     -0.503534
Pb      11.56525      3.70169      4.43457         0.077632      0.457145     -0.685587
Pb      11.62414      3.74185     17.37583         0.769687      0.313500     -0.349043
Pb      11.62641     15.31398      4.32873        -0.224742     -0.134554     -0.406691
Pb      11.70485      0.02024     17.33453         0.113526      0.162086     -0.311988
Pb      11.63449      3.84110      8.73884         0.051060      0.270890     -0.632509
Pb      11.66642     15.30140      8.70153        -0.247118     -0.067334     -0.433219
Pb      11.57889      3.87098     13.01961         0.499202     -0.069382     -0.146171
Pb      11.59244     15.25005     13.02310         0.081847      0.331523      0.322639
Pb      11.64361      7.68428      4.45474         0.297998     -0.206291     -0.830025
Pb      11.79622      7.62691     17.40095         0.213309      0.343641     -0.015233
Pb      11.74079      7.76293      8.73717         0.018942      0.040961     -0.885840
Pb      11.56835      7.76985     13.07712         0.521334     -0.466818     -0.199959
Pb      11.58003     11.51398      4.30525        -0.003412      0.140470     -0.630730
Pb      11.39534     11.52157      0.00049         0.148739     -0.061726     -0.261606
Pb      11.67764     11.53667      8.59162        -0.171990     -0.652897      0.461325
Pb      11.57768     11.50858     13.03687         0.243506      0.349752      0.149706
Ti       1.97091      1.89437      2.24973        -0.032594     -0.421889      0.334729
Ti       2.13063      1.85350     15.42989        -0.673007      0.706736      0.377004
Ti       1.93706     13.39163      2.18438        -0.161274      0.943686     -1.236661
Ti       2.16053     13.36441     15.48989        -0.278999      1.188286     -0.605302
Ti      13.44502      1.84499      2.28258         0.926374      1.350600     -0.200016
Ti      13.63889      1.95126     15.27334        -0.299622      0.234075      0.618774
Ti      13.51856     13.42037      2.17555        -0.181667     -0.258486      0.410978
Ti      13.55331     13.48285     15.39970         0.799306     -0.155326      0.573716
Ti       1.92292      1.95420      6.61009         1.302649     -1.293536      0.624825
Ti       2.00325     13.41492      6.61915        -0.186720     -0.449305      0.629549
Ti      13.54203      1.93436      6.66928        -0.145168     -0.177824     -0.418974
Ti      13.48337     13.44026      6.65783         2.309932     -0.521362      0.008956
Ti       1.97229      1.87950     11.03303         1.641869     -0.046100     -0.237701
Ti       2.08813     13.47759     11.13671        -0.288090     -0.220212      0.917185
Ti      13.59120      1.89101     10.96648        -0.325770      0.033502      1.546539
Ti      13.64837     13.45002     11.10422        -0.714276     -0.504076      0.875251
Ti       1.85394      5.77774      2.26989         1.919923     -0.589219      1.055811
Ti       2.15393      5.77430     15.30918        -0.280135     -1.096272     -0.791328
Ti      13.43796      5.72381      2.26394         0.547096      0.564123     -0.804636
Ti      13.65429      5.73187     15.36593         0.194708     -0.075473      0.620609
Ti       2.05099      5.72089      6.71778        -0.320764      0.724152     -1.819206
Ti      13.63039      5.74704      6.62876        -0.612111      1.212162      0.691454
Ti       2.08629      5.75989     11.08048        -1.502104      0.556591     -0.584516
Ti      13.63069      5.71900     10.98894        -0.364086     -0.312668      1.214320
Ti       1.88346      9.57218      2.14900         0.082853     -0.588851      1.005589
Ti       2.11252      9.62748     15.42743         0.366014     -0.504988      0.979423
Ti      13.43986      9.64364      2.30333         0.459022     -1.523006     -1.908940
Ti      13.60319      9.70016     15.42963        -0.251439     -0.578765      0.130093
Ti       2.03044      9.57502      6.69237         0.932756      0.188275     -1.045617
Ti      13.65400      9.58231      6.54071        -0.709325     -1.334492     -0.420268
Ti       2.05033      9.63093     11.10826         0.150352     -0.485720      0.238365
Ti      13.59382      9.54273     11.14047         0.506335      0.890849     -0.921969
Ti       5.76884      1.97051      2.30881         0.075026     -0.834652     -0.450922
Ti       5.98309      1.86328     15.43409        -1.761862      0.753289      0.406655
Ti       5.70662     13.53716      2.29070         0.680064     -0.679980      0.568931
Ti       5.99338     13.40646     15.37523        -0.547894      0.213830      1.666689
Ti       5.83746      1.83609      6.66426         0.392491      0.001045      0.779952
Ti       5.89690     13.43244      6.52927        -1.249311     -0.839740      0.200332
Ti       5.81987      1.90627     10.92673        -0.181632     -0.602278      0.791682
Ti       5.84252     13.40829     11.04679         0.965084     -0.194245     -1.004183
Ti       5.82934      5.81808      2.37370        -0.426073     -0.518537     -0.779204
Ti       5.96422      5.76741     15.31152        -0.764527     -1.002855      0.807697
Ti       5.89602      5.71317      6.54459         0.026417      0.808137      0.019414
Ti       5.88828      5.67499     10.91482         0.530633      0.816767      0.556520
Ti       5.75489      9.66597      2.31685         0.374695     -0.249739     -0.367885
Ti       5.93327      9.61434     15.37389         0.311525      0.075029      1.971594
Ti       5.81724      9.65192      6.56833         0.710999     -0.710874      2.695591
Ti       5.90359      9.66723     10.95536        -0.388789     -0.748053      1.103108
Ti       9.67568      1.94623      2.28568        -0.690155     -0.521012      0.961125
Ti       9.69200      1.93746     15.29871         1.273600      0.087699     -0.237317
Ti       9.59881     13.44387      2.36454        -0.200355      0.585349     -0.743142
Ti       9.71111     13.54058     15.38067         0.652381     -1.816481     -0.973211
Ti       9.69905      1.84878      6.65879        -0.554180      0.062012      1.603516
Ti       9.71889     13.36382      6.64176        -0.842448     -0.067149     -0.415252
Ti       9.83529      1.89158     10.96117        -1.517522     -0.437047      1.666069
Ti       9.76078     13.40684     11.00398        -0.799133      0.520214      0.649163
Ti       9.67558      5.71933      2.44834        -0.720616     -0.239440     -0.919831
Ti       9.78419      5.77008     15.32993         0.355947      0.851404     -0.266383
Ti       9.70616      5.71717      6.67722         0.874624      0.268149     -0.999222
Ti       9.76990      5.79531     10.93976        -0.122291     -0.524902      2.689444
Ti       9.67781      9.59691      2.35659        -0.492355     -0.686761     -1.160555
Ti       9.82885      9.63621     15.43633        -0.808209      0.427459      0.774614
Ti       9.73539      9.54714      6.62872        -1.052982      0.157579      0.989685
Ti       9.80197      9.57961     10.94012        -0.823739      0.899345     -1.252953
O       2.08395      1.84378      0.48575        -0.706490      0.428119     -0.356312
O       2.25083      2.03141     13.70865        -0.383787      0.061558     -1.763680
O       1.85827     13.33644      0.36916         0.195177      0.372268      0.453490
O       2.20338     13.39076     13.65685        -0.170547     -0.016563      0.702917
O      13.39398      2.06564      0.54382        -0.016016     -0.714270     -0.208449
O      13.59495      1.90710     13.53490         0.145089      0.244065     -0.394150
O      13.50221     13.49338      0.41162        -0.369902      0.247826     -0.004561
O      13.61627     13.41672     13.63140         0.014658     -0.032022     -0.088988
O       2.00827      2.01141      4.87547        -0.408466     -0.448233     -0.279250
O       2.00607     13.35945      4.87893        -0.295586      0.052963     -1.165491
O      13.53082      1.83070      4.88897         0.296284      0.056711      0.116129
O      13.58766     13.40423      4.90334        -0.185380     -0.026010     -0.112300
O       1.98127      1.80777      9.23976        -0.071996      0.041020     -0.037101
O       2.06495     13.56066      9.41868         0.097776     -0.086919     -1.702724
O      13.56928      1.80967      9.19887        -0.305144      0.034560     -0.813850
O      13.54823     13.44294      9.35119        -0.100233      0.064908     -0.882005
O       1.91485      5.71981      0.53864         0.208553      0.319523     -0.837080
O       2.12198      5.76696     13.48097         0.189000     -0.579067      0.619009
O      13.52710      5.78249      0.44220        -0.326014     -0.380172      1.137428
O      13.72383      5.73446     13.61721        -0.391367      0.045204     -0.562693
O       2.06972      5.73391      4.86689        -0.272336      0.037458      1.557661
O      13.62688      5.91261      4.89209         0.027637     -0.237394     -1.115478
O       2.02751      5.77178      9.22010         0.073994     -0.330630      0.391735
O      13.64182      5.69726      9.24791        -0.032374      0.407628     -0.819866
O       1.97621      9.59709      0.42528        -0.113259     -0.200984     -1.141449
O       2.17552      9.68880     13.71531        -0.276293     -0.147146     -1.696259
O      13.31634      9.56669      0.48153         0.005407      0.269298      0.919624
O      13.54680      9.72191     13.61303         0.124518     -0.208668      0.179174
O       2.00077      9.64482      4.91628        -0.103086     -0.038359      0.387847
O      13.65114      9.43137      4.68208        -0.193156      0.796762      1.927419
O       2.09840      9.57943      9.35939        -0.233528     -0.143275     -0.896566
O      13.62555      9.53376      9.33392        -0.285535     -0.075436      0.376240
O       5.79992      1.69867      0.55050        -0.234425      1.066432      0.043167
O       5.89227      1.88273     13.69192         0.293575      0.242940     -0.978918
O       5.73343     13.40709      0.56554        -0.178470      0.089028     -0.688371
O       5.84051     13.35465     13.62849         0.461080      0.056177     -0.324526
O       6.02366      1.75325      4.92539        -0.380055      0.402005     -1.197825
O       5.82081     13.44643      4.75886         0.067099      0.239673      0.039522
O       5.71162      1.95740      9.20084         0.539667     -0.227029     -1.227482
O       5.88698     13.26418      9.24739        -0.696222      0.593268      0.773586
O       5.71066      5.79435      0.58229         0.178727      0.196715      0.192622
O       5.93159      5.62771     13.54187        -0.111840      0.498879     -0.370114
O       5.89108      5.74364      4.74172         0.012148     -0.083042      0.893943
O       5.91831      5.67326      9.13287        -0.173956     -0.131655      0.355775
O       5.90563      9.66292      0.55577        -0.551748     -0.126182      0.258775
O       5.88771      9.68686     13.64347         0.479598     -0.130396     -0.876527
O       5.86433      9.61037      4.87693        -0.057727      0.323650     -2.455380
O       5.81755      9.68904      9.22946         0.569202     -0.206176     -0.751603
O       9.51328      1.92296      0.52538         0.584413      0.184126     -0.936616
O       9.64504      1.77225     13.55358         0.139605      0.926474      0.463382
O       9.68714     13.65404      0.60197         0.175609     -0.426329     -0.044534
O       9.74662     13.41932     13.59491        -0.294670     -0.065057      0.429741
O       9.62305      1.91826      4.94454         0.141610      0.149397     -1.417217
O       9.71377     13.43732      4.87315         0.187586     -0.553455     -0.240462
O       9.71335      1.87521      9.20942         0.787710     -0.071416     -0.047515
O       9.92796     13.54619      9.26122        -0.112423     -0.077491     -0.962801
O       9.55316      5.56442      0.65179         0.267655      0.487762      0.120375
O       9.79640      5.89513     13.53742        -0.148076     -0.154647      0.727564
O       9.71754      5.68011      4.86871        -0.112183     -0.017459      0.464171
O       9.76720      5.73730      9.24888         0.045128     -0.298975     -2.267398
O       9.63679      9.54731      0.56463         0.157613      0.138235      0.458158
O       9.76789      9.80866     13.67231         0.135772     -0.927441     -0.633233
O       9.55330      9.68169      4.87912         0.582648     -0.396962     -0.685275
O       9.74457      9.41124      9.12602         0.038460      0.381523      1.220799
O       3.83866      1.99863      2.70205         1.193910     -0.424549      0.336275
O       3.96097      1.81187     15.78539         1.935011      0.668212      0.627483
O       3.74935     13.48452      2.62062         1.602018     -0.560242      0.486403
O       4.08013     13.37110     15.80337         0.088408     -0.157173     -0.005955
O       0.10282      1.82661      2.61558        -0.759287     -0.262906      0.535886
O      15.53757      1.93029     15.61864         0.099661      0.176815      0.689979
O       0.09908     13.49793      2.59199        -1.396961     -0.090496      0.689659
O      15.51797     13.50813     15.70569         0.186208     -0.154050      0.231761
O       3.96708      1.91000      6.91696        -1.048812     -0.298760      0.403957
O       3.96625     13.40961      6.89198        -0.209457      0.327536      0.656362
O      15.43877      1.90370      7.03679        -0.054863     -0.156402      0.189272
O       0.12186     13.26034      7.03038        -0.858117     -0.008090      0.353209
O       3.94988      1.93354     11.26113        -0.122537      0.033501      0.576669
O       3.94704     13.46124     11.54398         0.867665      0.078255     -0.274975
O      15.45652      1.87925     11.37280         0.326803      0.113100      0.198112
O      15.51717     13.51812     11.56804         0.172024     -0.489427     -0.161704
O       3.90685      5.74713      2.77609        -0.131278     -0.012563     -0.033713
O       4.05477      5.70149     15.82252        -0.175664      0.501111     -0.192904
O       0.08438      5.90333      2.57403        -1.636691     -0.451482      0.640213
O       0.22519      5.70284     15.67914        -0.214546      0.633556      0.372337
O       4.03135      5.69936      6.93463        -0.377032     -0.555448      0.479542
O       0.14085      5.80829      7.07701         0.824763     -0.213332      0.193079
O       3.89711      5.75614     11.36394         2.719129     -0.304773     -0.121010
O      15.44018      5.75421     11.50477         0.547149      0.085858     -0.294823
O       3.85176      9.74121      2.59808         0.161483     -0.387000      0.107466
O       4.03847      9.70439     15.74479        -0.009703      0.034341      0.264145
O      15.36578      9.50907      2.42688         0.599777      0.151356      0.701421
O      15.45413      9.66956     15.77687         1.458778     -0.252242     -0.090261
O       3.96719      9.51450      7.08288        -0.363889      0.122049      0.068440
O       0.17580      9.56105      7.08996        -0.563857      0.062689      0.039886
O       3.99823      9.51027     11.28847         0.198444      0.167566      0.843730
O      15.49468      9.47370     11.31140         0.475235      0.466971      0.859481
O       7.81162      1.99298      2.69015        -0.888377     -0.520812      0.330522
O       7.82986      2.03904     15.79054         1.289331     -0.163662      0.021108
O       7.70721     13.42251      2.50371         0.965077      0.079488      0.763005
O       7.91269     13.51027     15.89731        -0.461438     -0.370593     -0.284242
O       7.79004      1.76001      7.08213         0.772287      0.404955      0.314976
O       7.74045     13.26529      7.05935         1.450322      0.427943     -0.113986
O       7.78941      1.87368     11.41194         0.615198      0.555357     -0.205865
O       7.76241     13.48305     11.20951         0.582503     -0.361374      0.808991
O       7.71407      5.65321      2.66675         0.883523      0.209421      0.590743
O       7.79508      5.61668     15.71261         1.638248      0.772888      0.215260
O       7.80327      5.59348      6.93422         0.372159      0.318259      0.499865
O       7.79472      5.74804     11.30085         0.372712     -0.054145      0.029621
O       7.72961      9.74565      2.65344        -0.003128     -0.489402      0.500218
O       7.94221      9.56438     15.84246        -0.390052     -0.132576     -0.277070
O       7.79987      9.71761      7.01690        -0.301180     -0.880047      0.259830
O       7.93477      9.68187     11.52304        -0.771573     -0.586121     -0.397166
O      11.61321      1.96028      2.72564        -0.246459     -0.361348      0.288028
O      11.66466      1.97615     15.72464        -0.405845     -0.353265      0.102338
O      11.71626     13.35270      2.74692        -1.244741      0.194559      0.163159
O      11.66752     13.46160     15.75123         0.090880      0.657350      0.336759
O      11.63715      1.72452      6.89324         0.569095      0.678783      0.796662
O      11.63313     13.33962      7.04169        -0.021086      0.173713      0.077158
O      11.71079      1.87385     11.54515        -0.769555      0.073981     -1.029515
O      11.64563     13.34379     11.57314         0.522963      0.760556     -0.659555
O      11.61168      5.61192      2.73145        -0.044211      0.308067      0.156115
O      11.75479      5.84833     15.63079        -0.823552     -0.304486      0.303937
O      11.70640      5.87019      6.89765        -0.522400     -0.550043      0.864747
O      11.68659      5.80198     11.31997        -0.229654     -0.253981      0.318726
O      11.59739      9.52716      2.75855        -0.951634      0.584401      0.539903
O      11.73476      9.55348     15.83659        -0.565999      0.249874     -0.089637
O      11.63360      9.43053      6.99011         0.892716      0.302148     -0.320570
O      11.66571      9.61629     11.31720        -0.339863      0.127884      0.582475
O       1.92127      3.81938      2.73126        -0.124089      0.468427     -0.168598
O       2.06900      3.96974     15.84576         0.585333     -1.783239      0.107718
O       2.06250     15.30461      2.53908        -0.344957      0.780459      0.669709
O       2.14981      0.01183     15.71357        -0.301414     -1.326861      0.403435
O      13.67607      3.74913      2.71882        -0.475747      1.163472      0.138956
O      13.65186      3.82108     15.70785        -0.209268      0.533517      0.327945
O      13.45882     15.30329      2.62571         0.267089      0.285235      0.298588
O      13.66571      0.09487     15.78840        -0.565090     -1.064994      0.169149
O       1.96281      3.80315      7.09503         0.394211      0.153964      0.125802
O       1.86497     15.25105      7.01429         0.690689      1.430685      0.159739
O      13.70027      3.89833      6.89380        -0.899845     -1.604950      0.563294
O      13.59639     15.28821      6.96244         0.010667      0.155008      0.516533
O       2.03263      3.84874     11.34883        -0.260140     -0.725754      0.313158
O       2.10165      0.03740     11.49700        -0.225372      0.084744      0.410378
O      13.55701      3.77630     11.22358        -0.062397      0.533883      0.442243
O      13.63877     15.32594     11.53450        -0.533792      0.281821     -0.545343
O       2.05878      7.70692      2.70717         0.015013     -0.035394     -0.249627
O       2.15430      7.59335     15.63630        -0.134143      1.950682      0.725995
O      13.42709      7.66698      2.65395        -0.015314     -1.162562      0.279946
O      13.69360      7.75303     15.86117        -0.179380     -0.697282     -0.735880
O       2.14371      7.58521      7.12961        -0.419827      0.815143     -0.076073
O      13.69225      7.71906      7.08356        -0.229810      0.360536      0.055185
O       2.13154      7.58916     11.50697        -0.543776      1.369724     -0.062769
O      13.58575      7.69711     11.64000        -0.561990     -0.430130     -0.614452
O       1.86334     11.49803      2.53705         0.147402     -0.257230      0.634662
O       1.98551     11.49835     15.83870         0.584843      0.040374     -0.350143
O      13.54225     11.50342      2.56059         0.168349      0.589015      0.620795
O      13.57603     11.60350     15.91980        -0.023180     -0.421286     -0.586300
O       2.10762     11.45397      7.10501        -0.237995     -0.002254      0.199103
O      13.56985     11.38780      7.08062        -0.269976      0.450597     -0.196498
O       2.09280     11.55202     11.44890        -0.291854     -0.920631      0.143019
O      13.66736     11.55371     11.52740        -0.070706     -0.699107     -0.247325
O       5.80881      3.82366      2.67919         0.083979     -0.142383      0.344890
O       5.83564      3.85655     15.80971         0.298665     -0.640130     -0.032598
O       5.83931      0.03276      2.62651        -0.277312      0.250764      0.943229
O       5.99610     15.34984     15.74482         0.039279     -0.551705     -0.011898
O       6.05244      3.71912      6.97751        -0.804519      1.044541      0.020375
O       5.96619     15.25739      6.96543        -0.332050      0.251361      0.553694
O       5.87939      3.79201     11.35146         0.151015      1.039466      0.082918
O       5.94946      0.01057     11.36638        -0.928364     -0.428936      0.022818
O       5.87339      7.72314      2.69411        -0.108033      0.316423      0.274174
O       5.87049      7.69047     15.69646         0.419607     -0.082271      0.051588
O       5.94730      7.66339      6.94637         0.226965     -0.676178      0.232484
O       5.99316      7.67886     11.33181        -0.149366     -0.314094      0.244299
O       5.75466     11.63005      2.71095        -0.005183     -1.131555      0.187041
O       6.08708     11.50911     15.97748        -0.195387      0.237278     -0.817792
O       5.83501     11.47777      7.07690        -0.276911      0.544675     -0.287631
O       5.84511     11.47753     11.44848         0.248824      0.459233      0.148677
O       9.74578      3.74838      2.71779        -0.052770      1.058402      0.625070
O       9.88954      3.89691     15.74075        -0.631562     -0.232531     -0.224039
O       9.71900      0.02954      2.74444         0.214459     -0.418339      0.285316
O       9.75365      0.03855     15.67207         0.220686      0.821089      0.556065
O       9.84193      3.74645      7.12528        -0.089349      0.694720      0.047533
O       9.70187     15.24998      6.90928         0.046201     -0.186446      0.755753
O       9.75820      3.82201     11.53342         0.176461     -0.000337     -0.909823
O       9.73559     15.34786     11.50914         0.371215      0.409542     -0.716748
O       9.60603      7.67118      2.74025         0.145732     -0.558597      0.257558
O       9.83335      7.67224     15.95372        -0.383304     -0.813030     -0.881147
O       9.61291      7.59309      7.07870        -0.107589      0.145026     -0.232509
O       9.80471      7.71499     11.31509        -0.423138     -0.456078      0.584192
O       9.71637     11.48727      2.61590         0.336376      0.935033      0.588071
O       9.82587     11.56513     15.78640         0.039257     -0.257375      0.464073
O       9.74229     11.41203      7.09181         0.652077      1.169104      0.018077
O       9.71047     11.56262     11.24605         0.311839     -1.046311      0.389472
