  # total energy = -7881.00294049 
CRSYTAL
PRIMVEC
    15.3600000000000000    0.2300000000000000    0.0000000000000000
     0.0000000000000000   15.3600000000000000    0.0000000000000000
     0.0000000000000000    0.0000000000000000    17.440000000000000
PRESSURE
1.574 1.22005 2.40571 -0.139283 -0.336457 -1.53108
PRIMCOORD
320 1
Pb       3.80588      3.89153      4.47235         0.104680      0.220122     -0.976856
Pb       3.86721      3.67954      0.04448        -0.285233      0.819021      0.078857
Pb       3.95097     15.38602      4.25543        -0.064726      0.296477      0.081020
Pb       3.93741     15.37721      0.05166        -0.208500      0.124266     -0.419594
Pb      15.22214      4.12448      4.32930         0.515816     -0.080526      0.395949
Pb      15.34220      4.01020     17.41532         0.068217      0.316014     -0.160056
Pb       0.06765     15.15113      4.31419        -0.483407      0.965547      0.499854
Pb       0.06227      0.03549     17.38232        -0.418960     -0.374421     -0.801463
Pb       3.83401      3.79470      8.70205         0.074867      0.443405     -0.334268
Pb       3.90858     15.39902      8.59737        -0.224927     -0.214583     -0.047899
Pb      15.30546      3.83950      8.62833        -0.570085      0.430489     -0.121731
Pb      15.33485     15.55407      8.66949        -0.212363     -0.401855     -0.100397
Pb       3.61494      3.77282     12.97106         1.032186      0.483152      0.441842
Pb       3.85239     15.26144     12.98775        -0.161937      0.080622     -0.033798
Pb      15.32561      4.06839     13.00280        -0.109247     -0.313844     -0.149429
Pb      15.35866     15.54546     13.07298        -0.233885      0.060150     -0.218871
Pb       3.72344      7.73600      4.38606         0.712992      0.209164     -0.260715
Pb       3.85499      7.62807     17.39967        -0.442217      0.042665     -0.327745
Pb       0.10363      7.88296      4.40916        -0.423564     -0.050173     -0.508836
Pb      15.31600      7.97904     17.43305         0.204008     -0.444225     -0.320625
Pb       3.87272      7.74440      8.79982         0.190191     -0.374430     -0.527798
Pb       0.14368      7.55673      8.83536        -0.357318      0.114154     -0.739243
Pb       3.68668      7.67219     13.15887         0.613821      0.004804     -0.404320
Pb      15.33593      7.90042     13.05613        -0.147008      0.015222      0.218086
Pb       3.67832     11.69787      4.30786         0.424435     -0.647535     -0.189805
Pb       3.70400     11.57819     17.42516         0.484814     -0.264797     -0.571934
Pb      15.26233     11.83659      4.32650         0.162541     -0.861727      0.118325
Pb      15.16099     11.68275     17.38583         0.332294      0.301909      0.004722
Pb       4.02440     11.64137      8.72065        -0.561550     -0.391665      0.164043
Pb       0.11842     11.50236      8.86568        -0.072494      0.250399     -1.088014
Pb       3.76914     11.54669     13.09757         0.061959     -0.421838     -0.353608
Pb      15.34827     11.71199     13.15683         0.283220     -0.068629     -0.452699
Pb       7.76048      4.00546      4.31159        -0.825971     -0.160125     -0.121343
Pb       7.76085      3.78228     17.36462        -0.042424      0.567392      0.413410
Pb       7.82775     15.41387      4.25557        -0.888185     -0.167843     -0.104124
Pb       7.62910     15.45277     17.32574         0.488168     -0.335241      0.356717
Pb       7.60874      3.93741      8.67104        -0.065772     -0.126349      0.044668
Pb       7.57517     15.45250      8.56902         0.066764     -0.095802      0.248392
Pb       7.55140      3.98512     13.03389         0.532920     -0.377397      0.354867
Pb       7.63963      0.28527     12.94258         0.175914     -0.166540      0.386895
Pb       7.71473      7.79298      4.30329        -0.453852      0.128500     -0.215796
Pb       7.52392      7.77859     17.29963         0.472697     -0.368007      0.017555
Pb       7.61771      7.60030      8.70043        -0.089842      0.517266     -0.468128
Pb       7.68082      7.80333     13.05783         0.014058      0.150904      0.025684
Pb       7.62224     11.49632      4.16190        -0.376928      0.457255      0.709501
Pb       7.71809     11.59190     17.30837        -0.193435      0.702135     -0.276720
Pb       7.74164     11.55242      8.62892        -0.531414     -0.169272      0.362161
Pb       7.67003     11.71020     12.98097         0.086100     -0.244816      0.044878
Pb      11.51148      3.98036      4.31275        -0.117109      0.109036      0.109712
Pb      11.62592      4.12665     17.42738        -0.171483     -0.257273     -0.380336
Pb      11.53928     15.38490      4.21378        -0.190312      0.274474      0.813397
Pb      11.61775      0.26082     17.42616        -0.437090      0.079941     -0.299522
Pb      11.52268      4.11361      8.63263         0.038962     -0.797127      0.052565
Pb      11.39065     15.50745      8.68736         0.059793      0.202730      0.005870
Pb      11.55063      4.21735     13.02232        -0.021242     -0.524619      0.219822
Pb      11.40298      0.18808     13.00227         0.480458      0.475494      0.124404
Pb      11.52605      7.82543      4.40360         0.016378      0.049932     -0.353225
Pb      11.46436      7.91454     17.40525         0.198573     -0.676690     -0.853012
Pb      11.47745      7.85977      8.77106        -0.108467     -0.097225     -0.214519
Pb      11.57260      7.94360     12.97797        -0.145063     -0.431359      0.063270
Pb      11.41503     11.60495      4.43983         0.416084     -0.041174     -0.232968
Pb      11.44609     11.71857     17.39321         0.123471      0.494600     -0.449294
Pb      11.63176     11.68334      8.66562        -0.628895     -0.107131      0.444723
Pb      11.38391     11.76006     13.03494         0.328252      0.026103     -0.259583
Ti       1.89849      1.97120      2.37970         0.445170      0.246721      0.821982
Ti       1.97993      1.92456     15.35946        -0.876130     -0.676451      2.209611
Ti       1.94409     13.55288      2.27308        -0.514790     -1.364964      0.786626
Ti       1.89009     13.41568     15.44006        -1.007030      0.384592     -0.559376
Ti      13.43961      2.06904      2.40000        -0.613763     -0.737507     -0.026280
Ti      13.44506      2.13908     15.31552        -0.704624     -0.866090      0.547305
Ti      13.42330     13.59685      2.30568        -0.588165     -0.340902     -1.104089
Ti      13.32957     13.60365     15.33151         0.906482      1.600082      0.188278
Ti       1.85054      1.89855      6.57754         0.025189     -0.314743      0.782177
Ti       1.91558     13.45951      6.66217        -0.635430     -0.999245      1.987071
Ti      13.27681      1.99482      6.64193         0.513511      1.019895      1.396007
Ti      13.37784     13.59221      6.78053         1.029863     -0.378981      1.183841
Ti       1.91444      1.85276     10.99239        -0.866608     -0.106242      1.838914
Ti       1.86465     13.33929     11.03521         0.828191      0.452614      0.259902
Ti      13.38475      2.09413     11.05943         0.235975     -0.598062     -0.475818
Ti      13.46897     13.60692     11.09122        -1.059865      0.307571     -0.662391
Ti       1.93963      5.85604      2.36519        -0.160842     -0.481647     -1.523745
Ti       1.87802      5.69984     15.38253         0.167567      0.883229      2.021694
Ti      13.44238      6.05460      2.40283        -0.390534     -1.063094      0.081042
Ti      13.52212      5.96517     15.35796        -1.052196      0.758884      0.529501
Ti       1.84535      5.65441      6.70257         0.783609      1.341055      1.364933
Ti      13.47491      5.99401      6.66227        -0.565866     -1.557008     -0.075277
Ti       1.89382      5.74037     10.97011         0.699457     -0.489558      0.346918
Ti      13.48467      5.89408     10.90353        -0.190703      0.595383      1.827952
Ti       1.96069      9.71209      2.25097        -0.825336     -0.610878      2.241771
Ti       1.84064      9.62778     15.44123         0.017979     -0.491678     -1.196996
Ti      13.33291      9.77477      2.32197         1.588931      0.856567      0.809286
Ti      13.39245      9.86125     15.31103         0.398226     -1.111099      0.795006
Ti       1.90423      9.54661      6.77822         0.350724      0.684221     -0.480252
Ti      13.50521      9.71620      6.79107        -0.508326      0.175884     -0.908885
Ti       1.94090      9.47642     11.06902         0.142758      1.240079      1.965444
Ti      13.52126      9.78582     11.01518        -0.325398     -0.118362      0.992853
Ti       5.77385      2.03340      2.38937        -0.505163      0.195863      0.506800
Ti       5.75070      2.08461     15.43352         0.050101     -1.155102     -0.469195
Ti       5.76421     13.45927      2.22587        -0.232566      0.124865      2.019588
Ti       5.69490     13.51599     15.40985         0.554837      0.420568      0.848126
Ti       5.63819      2.05816      6.55114         0.731301     -0.746838      1.036064
Ti       5.74311     13.46991      6.54544        -0.315043     -0.348123      1.138962
Ti       5.72901      2.02740     10.99553         0.262293     -0.134574      0.078713
Ti       5.78296     13.50775     11.00991        -0.100481     -0.391937     -0.196055
Ti       5.76269      5.87688      2.35632        -0.947770     -0.108942     -0.220428
Ti       5.72576      5.85083     15.40848        -0.378856     -0.548199     -0.441357
Ti       5.68514      5.83098      6.61087         0.545488     -0.572653      1.024444
Ti       5.78923      5.82302     11.09255        -1.007294      0.211397      0.152812
Ti       5.73395      9.68802      2.19030        -0.418091     -0.965047      0.798584
Ti       5.77623      9.74068     15.33503        -1.147538      0.127255     -0.508346
Ti       5.66842      9.60569      6.62380         1.297037      0.070775      1.249596
Ti       5.77545      9.66344     11.05598        -0.361752     -0.103562      0.632850
Ti       9.61612      2.04931      2.33536        -0.651921     -0.226306     -1.061819
Ti       9.62392      2.11609     15.36301         0.768904     -1.236720     -0.398858
Ti       9.62059     13.52890      2.25727        -0.795687     -0.013196      0.025561
Ti       9.55812     13.65571     15.33299         0.308284     -0.350657      2.973120
Ti       9.44162      2.06866      6.64566         0.777353     -0.010447      2.443972
Ti       9.48604     13.53243      6.61027         0.899169     -0.238444      1.190843
Ti       9.59871      2.13208     10.91253         0.233933      0.081052      1.409551
Ti       9.58444     13.69534     11.04519        -0.381314     -1.486219     -1.241533
Ti       9.53809      5.86078      2.27923         0.766458      0.696419      0.363915
Ti       9.55182      5.86074     15.34978         0.537073      0.652108     -0.031450
Ti       9.61923      5.89059      6.63736        -0.715939     -0.214187      2.488774
Ti       9.61076      5.86816     11.09142         0.440661      0.809980      1.059109
Ti       9.60825      9.74778      2.19948         0.013292     -0.723178      2.284752
Ti       9.65241      9.75114     15.31427        -0.701691     -0.175251      0.152464
Ti       9.57146      9.66974      6.67954        -0.778498     -0.008029      1.900415
Ti       9.64532      9.74544     11.01806        -1.152601      0.300779      0.951639
O       1.99516      2.04611      0.62169        -0.146378     -0.438747     -0.206263
O       1.85247      1.78509     13.67869         0.296925      0.208308     -1.740277
O       1.98791     13.38483      0.56520        -0.339800      0.521635     -1.226230
O       1.77422     13.41116     13.64156         0.500083     -0.097107      0.224027
O      13.16498      2.12739      0.64964         0.721247      0.282674     -0.063477
O      13.43840      1.99433     13.58494         0.078061      0.458448     -0.561723
O      13.23267     13.57990      0.51382         0.462572     -0.088964      1.054965
O      13.48021     13.66238     13.59153        -0.136943     -0.147322     -0.889613
O       1.92347      1.86601      4.86716         0.001696      0.255868     -0.694493
O       1.66539     13.32628      4.95609         0.783393      0.302037     -1.820721
O      13.27263      1.88805      4.93229        -0.055063     -0.059546     -0.959489
O      13.60367     13.62787      5.07930        -0.534213      0.031482     -1.652721
O       1.89460      1.99374      9.29915         0.171642     -0.087242     -1.826424
O       1.95820     13.43654      9.27098        -0.340384     -0.217449      0.740776
O      13.28164      2.15626      9.29911         0.658382     -0.151310     -0.426318
O      13.44758     13.58646      9.29006        -0.059317     -0.114774      0.381932
O       1.89221      5.83619      0.54437         0.418570     -0.221606      1.364178
O       1.79201      5.68379     13.68866        -0.121716      0.151665     -2.133207
O      13.37930      5.77824      0.64377         0.172502      0.512384      0.265206
O      13.52306      5.94169     13.61706         0.195983     -0.102790     -0.591344
O       1.88726      5.73897      4.99728        -0.223045      0.202126     -2.083958
O      13.46942      5.98022      4.86803        -0.129026      0.016643     -0.365261
O       2.00324      5.68320      9.20323        -0.294595      0.145479      0.267783
O      13.32393      5.78801      9.19421         0.376484      0.356383     -0.652711
O       1.89159      9.65763      0.57116         0.025407      0.043479     -2.273956
O       1.74960      9.62391     13.63081        -0.013097     -0.017386      0.299895
O      13.33169      9.82620      0.57086        -0.388244     -0.074452     -0.265814
O      13.44110      9.91273     13.58279         0.167724     -0.408317     -1.204190
O       1.88205      9.53141      4.96228         0.037574      0.001141      0.616917
O      13.44404      9.73311      4.96937         0.171685     -0.199352      1.160140
O       1.98719      9.57092      9.37578        -0.340369     -0.175705     -2.464103
O      13.44706      9.80506      9.29514         0.031948     -0.113148     -1.336992
O       5.64674      2.02485      0.61373         0.146187     -0.071848     -0.717896
O       5.82140      2.03945     13.68683        -0.091351     -0.234966     -0.369572
O       5.60563     13.49180      0.53401         0.136304     -0.124241     -2.181281
O       5.75913     13.66848     13.70610        -0.005517     -0.235023     -1.984189
O       5.68878      2.02759      4.80776         0.136341     -0.109976     -0.358818
O       5.72348     13.37285      4.82053        -0.200891      0.052261     -0.388037
O       5.74691      2.02526      9.24614        -0.407684     -0.132768     -0.182874
O       5.75308     13.59330      9.25415        -0.384223     -0.325857     -0.214795
O       5.63984      5.98452      0.58018         0.051850     -0.190164     -0.596536
O       5.82492      5.78870     13.67731        -0.156970     -0.140376     -0.538370
O       5.80584      5.82416      4.89063         0.259338      0.019503     -1.509643
O       5.62647      5.89956      9.33024         0.352127     -0.235131      0.253232
O       5.57310      9.59585      0.44100         0.415055      0.181764     -0.272715
O       5.80707      9.66835     13.55658        -0.287306      0.268183      1.208542
O       5.72612      9.60738      4.89585        -0.168717      0.035453     -0.460303
O       5.73324      9.67508      9.27998         0.026592     -0.623315      0.399443
O       9.64118      2.03195      0.56735        -0.142364      0.244196      0.110604
O       9.55117      2.03406     13.58905        -0.141742     -0.065849      0.431874
O       9.56032     13.46451      0.50036         0.379287     -0.105611      0.510891
O       9.48318     13.54937     13.65628        -0.079939      0.404954     -2.780164
O       9.43742      1.98996      4.93520         0.069897      0.271598     -1.102998
O       9.49599     13.44716      4.88995         0.018144      0.383807     -1.029852
O       9.50578      2.12909      9.18177         0.111548     -0.245651     -0.227164
O       9.55706     13.47617      9.28971         0.221489      0.558592     -0.303354
O       9.49805      5.95453      0.55515         0.364122     -0.257813     -0.702272
O       9.52699      5.86443     13.58443         0.329554     -0.164205      0.289380
O       9.41457      5.90375      4.92741         0.371437      0.009247     -1.304076
O       9.81459      5.88047      9.38747        -0.662767      0.122315     -1.079272
O       9.80109      9.74273      0.49539        -0.342924      0.057388     -1.129573
O       9.58046      9.77123     13.57246         0.169675      0.077149     -0.014956
O       9.59453      9.52179      4.97647        -0.066955      0.290690     -1.612513
O       9.64631      9.70633      9.27860        -0.431387      0.110508     -0.483646
O       3.86003      1.92745      2.79239        -0.823827     -0.073852      0.025294
O       3.84201      1.97928     15.78301         0.158727     -0.267879      0.154034
O       3.79881     13.44739      2.61839        -0.232855     -0.311032      0.755319
O       3.79594     13.42324     15.68204        -0.790445      0.019405      0.480057
O      15.32374      1.95577      2.70122         0.032018      0.629239     -0.261404
O      15.35054      2.10612     15.82352         0.063457      0.027583      0.166563
O      15.32110     13.72720      2.66667        -0.221009     -0.285114     -0.139180
O      15.29340     13.78917     15.74627        -0.055101     -0.377317      0.702928
O       3.78647      2.01232      7.04223        -0.188097     -0.232304      0.053373
O       3.83387     13.27379      7.07142         0.090405      1.334265     -0.536730
O      15.27634      2.22491      6.93932         0.502228     -1.221857      0.414131
O       0.01581     13.49613      7.13237        -0.430635      0.090761      0.638723
O       3.84640      1.94890     11.40483        -0.498940     -0.111604      0.125754
O       3.83827     13.37451     11.51600        -0.566715      0.577770     -0.070167
O      15.34765      2.12587     11.34869         0.003241      0.040496      0.261975
O      15.32279     13.59757     11.44038         0.859940     -0.238471     -0.156182
O       3.89704      5.90537      2.89865        -1.785867     -0.315536     -0.404300
O       3.75672      5.89639     15.64923         0.641997     -0.003669      0.528176
O      15.35113      5.95829      2.71783        -0.215552     -0.282114      0.222314
O      15.33767      5.83075     15.88723         0.296462      0.361806      0.153606
O       3.86334      5.84077      6.92795        -1.434071     -0.724487      0.511873
O      15.28124      6.01499      7.09794         0.991055     -0.507824      0.303695
O       3.78747      5.86410     11.46879        -0.482881     -0.486495      0.213276
O       0.02972      5.57127     11.33796        -0.488917      0.232962     -0.112145
O       3.87056      9.61989      2.68921        -1.156262      0.098660      0.051419
O       3.69274      9.82932     15.64702         1.114765     -0.592888      0.293854
O      15.28879      9.80819      2.63288        -0.246085     -0.147728      0.342965
O      15.22337      9.76230     15.92767         0.415183      1.395996     -0.037974
O       3.78940      9.56555      7.17750         0.097123      0.036285     -0.290796
O       0.07335      9.42659      7.17866        -1.327097      0.264992      0.254627
O       3.80433      9.45062     11.47225         0.621155      0.040457      0.282577
O       0.01441      9.51190     11.36128        -0.383828      0.853191      0.297908
O       7.63199      2.15747      2.69182         0.559032     -0.887986      0.214325
O       7.73489      1.89164     15.85367        -1.190382      0.784192     -0.124788
O       7.57940     13.52522      2.66161         1.543264     -0.346108     -0.022765
O       7.64805     13.55407     15.84669        -0.034731     -0.153984      0.075456
O       7.54245      1.99808      7.15371         0.419861      0.094877     -0.738676
O       7.65397     13.53894      6.95236        -1.047528      0.150457      0.382146
O       7.72494      2.07673     11.39849        -1.267746      0.319760     -0.021742
O       7.66774     13.48179     11.26709        -0.812120      0.110475      0.940742
O       7.61611      5.76521      2.63937         1.263018      0.218328      0.460297
O       7.65173      5.76545     15.78890        -0.018706      0.294943      0.271124
O       7.59783      5.73964      7.20629         0.595779      0.736292     -0.286129
O       7.70927      5.70823     11.50912        -0.558933      0.711642     -0.843993
O       7.72654      9.68480      2.56006        -0.458153     -0.037444     -0.100273
O       7.62188      9.77209     15.83776         0.465518     -0.301979     -0.364017
O       7.58384      9.58128      7.05507         0.136389      0.110939      0.122228
O       7.62217      9.84851     11.60647         0.714813     -1.084714     -1.083419
O      11.39560      1.85258      2.80019         1.218395      1.100990      0.289513
O      11.45857      2.08446     15.67471         1.005006      0.218305      0.364809
O      11.47174     13.31974      2.80273        -0.184725      1.499049     -0.381962
O      11.47906     13.48781     15.59229        -0.299903      0.277892      0.411029
O      11.44969      2.11476      7.11302        -0.735417     -0.397014     -0.458303
O      11.43509     13.45774      7.07155         0.136919      0.203350     -0.215800
O      11.46438      1.93224     11.36185        -0.043868      0.415678      0.180537
O      11.42506     13.64577     11.50749         1.215691      0.176439     -0.013726
O      11.49131      5.88550      2.74307         0.094332     -0.292339      0.290140
O      11.58667      5.99368     15.68854        -0.922922     -0.242482      0.483629
O      11.51074      5.91883      7.11815        -0.926429      0.087787     -0.800932
O      11.60910      6.13314     11.49452        -0.082639     -0.954146     -0.036379
O      11.49642      9.80757      2.85701        -0.841206     -0.103865     -0.292332
O      11.51503      9.75247     15.71383        -0.300681     -0.416448      0.266669
O      11.48893      9.72771      7.09044         0.257890      0.047280      0.016765
O      11.46178      9.66406     11.36253         1.499539      0.147093      0.326649
O       1.92739      3.83854      2.77940        -0.072815      0.325710      0.025712
O       1.93739      3.81769     15.72703        -0.084210     -0.341144      0.300891
O       1.94840     15.34845      2.88673         0.072754      0.282984     -0.833960
O       1.93154     15.31457     15.92960         0.134543      0.726118     -0.114927
O      13.34390      3.85730      2.95418         0.208892      1.131128     -0.596882
O      13.39213      4.02572     15.79212         0.154753     -0.301091      0.080222
O      13.31706     15.48962      2.72499         0.025718     -0.791412     -0.008485
O      13.31727      0.22180     15.80491         0.319954      0.052043      0.168516
O       1.87405      3.81823      7.04800         0.088158     -0.596626      0.205809
O       1.97319     15.34444      7.05218        -0.093879      0.894487      0.063849
O      13.40683      4.01418      6.92831        -0.188976     -0.361547      0.225173
O      13.32539     15.43389      7.29414         0.048352      1.299591     -0.600183
O       1.83730      3.77658     11.54864         0.675607      0.385873     -0.609664
O       1.85757     15.31643     11.41862         0.416971     -0.423592     -0.055842
O      13.38038      3.99326     11.43855        -0.203748      0.644036      0.147282
O      13.46500     15.54218     11.41684        -0.033811     -0.591810      0.143860
O       1.78340      7.73953      2.61318         0.765090     -0.354958      0.735396
O       1.77831      7.76756     15.70220         0.029676     -1.074136      0.606897
O      13.31497      7.86916      2.72372         0.160810      0.335107     -0.242442
O      13.60104      7.93044     15.69898        -0.934377     -0.936715      0.270727
O       1.83749      7.57545      7.16789         0.591904      0.964290      0.099458
O      13.35093      7.77338      7.12193         0.209704      1.880894      0.315046
O       1.74365      7.62502     11.49985         0.531857     -1.091257     -0.303728
O      13.67567      7.82727     11.31554        -0.932056     -0.063802      0.165413
O       1.75426     11.55143      2.69717         0.872168      0.416889      0.177935
O       1.65382     11.50509     15.87022         0.407468      1.072418      0.055478
O      13.38104     11.72868      2.84461         0.376259     -0.273600     -0.338000
O      13.32182     11.74459     15.71959         0.879074     -0.680833      0.484475
O       1.82657     11.59879      7.09908         0.034474     -1.938074      0.307987
O      13.53819     11.63482      7.14868        -0.135795     -0.018546      0.088528
O       1.94250     11.38326     11.54962        -0.362668      1.561164     -0.436700
O      13.40794     11.69545     11.38700        -0.170380     -0.093307      0.264628
O       5.66816      3.92742      2.72449        -0.111798      0.043213      0.046013
O       5.64769      3.92763     15.81489         0.592819     -0.360187      0.338078
O       5.68201     15.31924      2.67953         0.260609      1.282723      0.123690
O       5.68181     15.42202     15.87959         0.046375      0.651320      0.175233
O       5.70003      3.85413      7.04568        -0.125988      0.486454      0.077099
O       5.62944     15.38541      6.96214         0.165779      0.201400     -0.007629
O       5.65060      3.89779     11.44140         0.224563     -0.003334      0.119235
O       5.70195     15.43183     11.31550         0.265947      0.100505      0.638972
O       5.77287      7.77522      2.70194         0.322682      0.381477      0.134564
O       5.73343      7.75625     15.69067        -0.035618      0.765066      0.420281
O       5.74289      7.62666      7.07873        -0.085339      1.940280      0.261604
O       5.76151      7.64737     11.65633         0.418963      0.688211     -0.820970
O       5.66872     11.52443      2.69254         0.368548      0.229783     -0.202312
O       5.62583     11.65266     15.77405         0.930205     -1.169951      0.105257
O       5.69382     11.56008      7.13420         0.704631     -0.254514     -0.627145
O       5.66345     11.52935     11.36275        -0.116340      0.754763      0.269840
O       9.63759      3.92688      2.67262        -0.045361      0.680382      0.454165
O       9.60164      3.94897     15.83523        -0.228806      0.705396     -0.085699
O       9.53826     15.46562      2.68847        -0.144650     -1.184200      0.110201
O       9.72312     15.45403     15.91819        -0.847246      0.420579     -0.666276
O       9.44224      4.01856      7.20485         0.739810     -0.610053     -1.115387
O       9.50605     15.50009      7.05585         0.230465     -0.269025     -0.185614
O       9.72005      4.03782     11.52309         0.157439     -1.032738     -0.498203
O       9.48242      0.19877     11.37572         0.170311     -0.076168      0.030639
O       9.63188      7.78143      2.63965        -0.154012      0.565961      0.223197
O       9.52066      7.77514     15.65714         0.051853      0.687995      0.585206
O       9.45195      7.74137      7.19769         0.704267     -0.101122     -0.332093
O       9.57446      7.81990     11.46574        -0.555211      0.149063      0.067955
O       9.47708     11.65598      2.79178         0.642748     -0.842651     -0.701561
O       9.58937     11.65145     15.73221        -0.278787     -0.503677      0.319517
O       9.37039     11.56736      7.06298         1.075530      0.280242     -0.607689
O       9.65501     11.72227     11.45947        -0.394989     -0.859596      0.166233
