  # total energy = -7879.14275178 
CRSYTAL
PRIMVEC
    15.3600000000000000    0.2300000000000000    0.0000000000000000
     0.0000000000000000   15.3600000000000000    0.0000000000000000
     0.0000000000000000    0.0000000000000000    17.440000000000000
PRESSURE
0.43343 0.595032 -4.9068 -0.187066 0.077521 -1.60797
PRIMCOORD
320 1
Pb       3.83010      3.84746      4.26309        -0.330657     -0.303437      0.020568
Pb       3.73243      3.96024     17.34153         0.703387     -0.594326      0.531895
Pb       3.70149     15.41425      4.51014        -0.202192      0.013935     -0.600401
Pb       3.69480     15.34078     17.37901         0.394090      0.060927     -0.425989
Pb       0.11684      3.76932      4.26947        -0.540472     -0.390141     -0.059869
Pb       0.00627      3.72902     17.29049         0.030378      0.058749      0.691321
Pb      15.27400      0.34381      4.41598         0.065624     -0.146001     -0.325897
Pb      15.27185     15.50105     17.31760         0.485103     -0.301061     -0.143082
Pb       3.84084      3.96844      8.66997         0.233366      0.152496     -0.546070
Pb       3.69666      0.16909      8.84947         0.188584     -0.037996     -0.468014
Pb       0.07428      4.19589      8.85579        -0.322279     -0.876510     -0.901763
Pb       0.03096     15.32594      8.74524        -0.477747      0.154371      0.166323
Pb       4.05914      4.00701     13.05760        -0.562215     -0.160336     -0.045598
Pb       3.82645      0.20275     13.12120        -0.063353     -0.632132     -0.401723
Pb      15.32796      4.11930     13.02584        -0.117993     -0.282967     -0.018251
Pb      15.30265      0.28828     13.10263         0.098535     -0.527417     -0.346668
Pb       3.89525      7.73280      4.36504         0.123912     -0.115564     -0.669358
Pb       3.78760      7.79366     17.43671         0.893919      0.207151     -0.426750
Pb      15.19474      7.69742      4.29850        -0.038790      0.155315     -0.123555
Pb       0.00370      7.63962     17.33132         0.157820     -0.198011      0.593740
Pb       3.69413      7.74694      8.54726         0.787554     -0.174447      0.339451
Pb      15.16378      8.07788      8.66114         0.023245     -0.138143     -0.540937
Pb       3.91801      7.80751     12.91634        -0.435860      0.069669      0.473447
Pb      15.35222      7.93984     13.06056         0.514629      0.446867     -0.542606
Pb       3.88705     11.52046      4.26546        -0.220828      0.347369     -0.442324
Pb       3.83779     11.57476     17.42301         0.352594     -0.264991     -0.567356
Pb       0.02991     11.51395      4.27111         0.021796      0.252973     -0.012430
Pb       0.17348     11.47683      0.06228        -0.356243      0.392626     -0.733700
Pb       3.61737     11.54824      8.62505         0.462991     -0.022556      0.068377
Pb      15.21183     11.77392      8.51956         0.498639      0.107086      0.548227
Pb       3.89706     11.49305     12.96707        -0.472449      0.043093      0.416578
Pb      15.35474     11.62446     13.06002        -0.032295      0.408703     -0.631975
Pb       7.53871      3.75066      4.35258         0.016068      0.796698      0.038639
Pb       7.51550      3.98868      0.00453         0.422039     -0.356734      0.287689
Pb       7.43267      0.12084      4.42424         0.435186      0.181946     -0.349405
Pb       7.66963      0.16655     17.42851        -0.014371      0.158072      0.338090
Pb       7.65766      4.00432      8.62566         0.109954      0.080823      0.295261
Pb       7.71600      0.15226      8.78206         0.012334     -0.138036     -0.134642
Pb       7.71533      3.85198     13.02206         0.126583      0.459090     -0.283515
Pb       7.64568     15.23144     13.18848        -0.088872      0.328586     -0.782893
Pb       7.67658      7.67160      4.44125        -0.211784     -0.254380     -1.001252
Pb       7.76502      7.77475      0.23142        -0.486925      0.006477     -0.709670
Pb       7.77626      7.93993      8.58579        -0.325503     -0.452067     -0.130277
Pb       7.59527      7.80508     13.03749         0.251955     -0.491235     -0.285495
Pb       7.67750     11.85984      4.49927         0.197473     -0.058425     -0.602988
Pb       7.66094     11.53843      0.12348        -0.016384      0.054056     -0.571560
Pb       7.58149     11.73379      8.78617         0.281451      0.297511     -0.624479
Pb       7.72978     11.53894     13.20135         0.020021      0.034120     -0.833788
Pb      11.52809      3.97733      4.37852         0.315454      0.287030     -0.583862
Pb      11.41349      3.85468      0.02201        -0.190715      0.018301     -0.451446
Pb      11.57240      0.27764      4.31730        -0.169262     -0.370953     -0.144557
Pb      11.39138     15.31024      0.05720         0.046765      0.467924     -0.635426
Pb      11.51033      3.96602      8.78369        -0.267450      0.020593     -0.445826
Pb      11.62324      0.19040      8.76948        -0.281306      0.319805     -0.310092
Pb      11.44927      3.85835     13.10639         0.199935     -0.227582     -0.536569
Pb      11.55873     15.34696     13.05171         0.250037      0.345501     -0.206123
Pb      11.46564      7.86470      4.24615         0.350807     -0.395823     -0.089097
Pb      11.55119      7.70191      0.04081        -0.244969      0.019302     -0.192255
Pb      11.51766      7.86064      8.56112         0.055900     -0.092692     -0.222296
Pb      11.39229      7.72232     13.14311        -0.398609      0.209923     -0.609461
Pb      11.65457     11.66909      4.21744        -0.533249      0.376585      0.284986
Pb      11.56973     11.54687      0.02370         0.273655      0.270769     -0.460762
Pb      11.41088     11.66380      8.59171        -0.265678     -0.011687     -0.397544
Pb      11.51508     11.53688     13.06622        -0.004957      0.186233     -0.314017
Ti       1.78711      1.86347      2.09802         0.675591      1.682433     -0.170948
Ti       1.93077      1.91974     15.35082         0.083203     -0.819206     -0.246298
Ti       1.85200     13.51378      2.32277         0.405860     -0.414451     -0.237871
Ti       2.01205     13.41379     15.23152        -0.337705     -0.550990      0.098994
Ti      13.33243      2.10298      2.15122         0.702805      0.061216      0.678617
Ti      13.43121      2.05769     15.43665        -0.608120     -0.737686     -0.756830
Ti      13.38281     13.65124      2.29522         0.317793      0.545153     -1.282955
Ti      13.51637     13.52674     15.39256         0.199909      0.358218     -1.108167
Ti       1.78589      2.00463      6.85255         0.475200      0.424997     -1.764863
Ti       1.89065     13.53444      6.72673        -0.593428      0.350005     -1.457032
Ti      13.40019      2.11095      6.69831         0.659158      0.367946     -1.345202
Ti      13.45465     13.71403      6.64597        -0.894636     -0.405025     -1.268848
Ti       1.98637      2.03824     10.99243        -0.294645     -1.709631     -0.310719
Ti       1.93022     13.48828     10.94835        -0.744410     -0.716888      0.362669
Ti      13.49642      2.07478     11.06968        -1.375354     -0.189287     -1.430014
Ti      13.46599     13.61079     10.90931         0.640244     -0.492649     -0.135189
Ti       1.93659      5.68948      2.27196        -0.085646     -0.151197     -0.179585
Ti       2.00370      5.74298     15.37243         0.127290      0.468979     -0.957960
Ti      13.42022      5.86748      2.25394        -0.103406     -0.974352      1.297981
Ti      13.46310      5.87920     15.36084        -0.833182     -0.064179     -0.636872
Ti       1.91379      5.78511      6.55332        -0.052953     -0.683114      0.502166
Ti      13.36203      5.84738      6.62531         0.629239      0.544056     -0.993386
Ti       1.91761      5.76965     11.06057         0.793883      1.266940      0.721964
Ti      13.36145      5.88409     11.00375        -0.302041      0.704314     -0.674006
Ti       1.90842      9.52112      2.29174         0.761057      0.489616      0.067678
Ti       1.90091      9.58734     15.40872         1.440201      0.025880     -1.992232
Ti      13.50121      9.77673      2.26826        -0.655509     -0.264546     -0.707235
Ti      13.49125      9.71101     15.43850        -0.282330      1.272263     -0.677923
Ti       1.91989      9.62473      6.55558        -0.830112      0.274724     -0.271135
Ti      13.45101      9.88100      6.53257         0.199738     -1.677761     -1.663536
Ti       1.87668      9.60679     10.86094         0.210322      0.088450      0.243242
Ti      13.36414      9.78402     10.96198         0.304247     -0.008930     -0.970890
Ti       5.65070      2.07870      2.22347        -0.081624     -0.807369     -0.780560
Ti       5.82087      2.07031     15.39822        -0.638793     -0.762397      0.904382
Ti       5.66567     13.63755      2.32129        -0.033813     -0.490862     -0.590574
Ti       5.84359     13.55289     15.40518        -1.842719     -0.207122     -0.605455
Ti       5.74811      1.94990      6.82235        -1.059530      0.733181     -0.884501
Ti       5.65391     13.54677      6.71657         0.582182     -0.427610     -0.849806
Ti       5.78246      1.95318     10.99347         0.181244     -0.145207     -0.692559
Ti       5.69537     13.46689     11.06919         1.021637      0.456119     -0.625130
Ti       5.72721      5.83102      2.26307         0.622150      0.058122     -1.326598
Ti       5.87990      5.89350     15.38488        -0.697887      0.772281     -0.211541
Ti       5.83157      5.88781      6.62928        -0.749672     -1.262152     -0.949220
Ti       5.76186      5.77508     11.05832         0.995534      1.188140     -1.619709
Ti       5.78018      9.69029      2.33439         0.155390      0.076419     -1.452695
Ti       5.83225      9.66153     15.41333        -1.105944     -0.471888     -0.610547
Ti       5.72175      9.70774      6.57126         0.382124      0.325967     -0.860857
Ti       5.77793      9.68782     10.99286        -0.869404     -1.013254     -0.701031
Ti       9.50605      2.08116      2.38327        -0.286083     -0.680544     -2.348678
Ti       9.54678      2.05022     15.33317         0.593041     -0.771729     -0.628009
Ti       9.52398     13.65815      2.36371        -0.078751      0.037762      0.224764
Ti       9.57819     13.54810     15.42520         0.649334     -0.290765      0.221872
Ti       9.56610      1.97590      6.65364        -0.227638      1.050152      0.669493
Ti       9.59138     13.63773      6.59690        -0.457978     -0.664139     -1.346404
Ti       9.52631      1.91408     11.13613         1.180961      0.725740     -1.085226
Ti       9.65121     13.51069     10.95752        -0.796309     -0.738105     -0.019036
Ti       9.58483      5.84602      2.34940        -0.497421      0.210998      0.829624
Ti       9.59480      5.86858     15.43443         0.139083      0.471109     -1.187986
Ti       9.58832      5.83416      6.54832         0.482056     -0.256455     -0.508333
Ti       9.63398      5.80405     10.96706        -0.885183      0.282757     -0.336446
Ti       9.62136      9.81983      2.32840        -0.370868     -0.492576      0.050572
Ti       9.69031      9.67748     15.40652        -1.090506      0.191670     -1.228506
Ti       9.60837      9.73946      6.45733         0.192864      0.835358      1.044503
Ti       9.57072      9.71762     11.01497         0.556519      0.154103     -0.715276
O       1.83937      1.86521      0.29993         0.124533      0.037391      0.371538
O       1.87697      1.88023     13.53478        -0.003190     -0.036451      0.419376
O       1.93989     13.46073      0.51399        -0.138110     -0.172068      1.163374
O       2.05416     13.49888     13.46760        -0.362757     -0.243781     -0.388705
O      13.31802      2.13484      0.34348        -0.049161     -0.052940      0.338548
O      13.53905      1.97599     13.62775         0.068504     -0.064549     -0.330208
O      13.32258     13.59918      0.44823         0.588981      0.162349      0.881242
O      13.63855     13.59735     13.52523        -0.376015      0.020816      1.410215
O       1.77817      1.88660      4.98871         0.166961      0.014391      0.721717
O       1.78941     13.71208      4.89977         0.120481     -0.228982      0.533515
O      13.58345      2.07326      4.83057        -0.760644      0.145816      1.798515
O      13.52310     13.74331      4.82300        -0.239698     -0.218909      0.845210
O       2.04942      2.02845      9.17593        -0.244002     -0.039915      0.830260
O       1.89071     13.47479      9.15168         0.399942      0.024973     -0.352310
O      13.23223      2.02391      9.24403         0.199429      0.113327      0.627804
O      13.44919     13.61104      9.06809        -0.552951     -0.144935      0.660150
O       1.98368      5.62884      0.51230        -0.070033      0.162811     -0.888703
O       1.99522      5.73514     13.54912        -0.494698     -0.042317      1.320444
O      13.27371      5.68533      0.53417         0.011076      0.481974     -0.932647
O      13.48144      5.95428     13.55400         0.101521      0.190785      0.537939
O       2.01220      5.48928      4.84045        -0.397085      0.992249     -0.941717
O      13.42501      5.79408      4.77706         0.045601      0.407148      1.180297
O       1.78706      5.74731      9.31585         0.560748      0.074326     -1.093257
O      13.30536      5.82237      9.13922         0.308649      0.010959      1.502972
O       2.01701      9.63866      0.50508        -0.117726     -0.129640      0.108315
O       1.80241      9.51324     13.55194        -0.220111      0.040553      1.258611
O      13.35744      9.75463      0.41803         0.027928      0.250727      1.290652
O      13.63334      9.82247     13.60054        -0.245764     -0.355248      0.479312
O       1.80675      9.65713      4.78894         0.382381     -0.061224     -0.450925
O      13.47657      9.76609      4.64005         0.433102      0.192415      1.088936
O       2.01717      9.55197      9.01656        -0.357431      0.214026      0.835467
O      13.35883      9.77126      9.08736         0.286258      0.082291      1.206532
O       5.80777      2.06034      0.42470        -0.201862     -0.010271      0.792479
O       5.87988      2.10641     13.64764        -0.156647     -0.122381     -0.719351
O       5.68338     13.62733      0.52622        -0.168333     -0.160582      0.367009
O       5.76363     13.50131     13.54214         0.648314      0.024659      1.111409
O       5.86559      1.95367      4.97982        -0.354324      0.208530      0.776422
O       5.67692     13.55947      4.87717         0.288816     -0.106500      0.656127
O       5.81801      1.94659      9.18702        -0.645953     -0.013256      0.346585
O       5.79216     13.43341      9.27134        -0.219287     -0.037376     -0.141702
O       5.79708      5.90390      0.37776        -0.076744     -0.294479      1.437523
O       5.87880      5.88852     13.53054        -0.172431     -0.236779      0.951903
O       5.86897      5.84489      4.78850        -0.309468      0.338474      1.143414
O       5.76173      5.82504      9.26588         0.115721     -0.045299      0.270199
O       5.70248      9.55325      0.41675         0.474903      0.341640      1.671533
O       5.75307      9.55700     13.53320         0.300919      0.572555      0.777947
O       5.76756      9.66628      4.71637        -0.170882     -0.151057      1.359092
O       5.55449      9.53090      9.21226         0.567008      0.628818      0.230044
O       9.48799      1.95412      0.50066         0.485872      0.430440      1.552402
O       9.44989      2.07707     13.43039         0.255406     -0.132176      1.721221
O       9.41218     13.65940      0.55162         0.693931     -0.210049      0.084603
O       9.41828     13.52502     13.65954         0.379046     -0.047318      0.154886
O       9.29987      2.00079      4.92438         0.556505      0.080115     -0.438373
O       9.48648     13.61939      4.71097        -0.068358     -0.169017      1.565111
O       9.61565      1.85720      9.29358         0.121247     -0.013470      0.786924
O       9.64542     13.33110      9.15608         0.015661      0.657183      0.388395
O       9.68599      5.95229      0.58898        -0.235153     -0.130019     -1.184659
O       9.55110      6.01954     13.60609         0.399238     -0.425128      1.220253
O       9.57964      5.80911      4.72631        -0.243693      0.368019      0.853469
O       9.79107      5.79563      9.16205        -0.486563      0.609316      1.076025
O       9.62479      9.74673      0.50378        -0.058561      0.131055      0.458137
O       9.68200      9.65675     13.52836        -0.232086      0.329666      0.959175
O       9.66127      9.80770      4.71369        -0.348680     -0.212549      0.059427
O       9.68908      9.72043      9.18570        -0.070065     -0.008430      0.351863
O       3.76093      2.08703      2.49161         0.232868     -0.345168      0.315780
O       3.80431      1.94314     15.71497         0.245324     -0.073857     -0.266394
O       3.73700     13.58562      2.81036         0.023571      0.118574     -0.075450
O       3.83779     13.50127     15.77288         0.796602     -0.089995      0.161224
O      15.29820      2.31350      2.41487        -0.117515     -0.939481      0.181618
O       0.00704      1.85502     15.78942        -0.230642      0.218409     -0.212362
O      15.25652     13.65201      2.68836         1.830237      0.101715     -0.323422
O       0.14300     13.24445     15.74261        -1.231082      0.010130      0.265861
O       3.76372      2.09213      7.13489         1.253306     -0.618327      0.006348
O       3.72770     13.53656      6.87312         1.280795      0.112542      0.728094
O      15.27275      2.15084      7.09713        -0.135104     -0.001477      0.463821
O      15.27946     13.69572      7.08287         0.760340      0.021495      0.054635
O       3.92291      1.92481     11.46060        -0.840247     -0.232355     -0.073019
O       3.88215     13.47192     11.32179        -0.681007     -0.165188      0.107531
O       0.02492      1.94220     11.20777         0.648775     -0.124679      0.635808
O      15.31378     13.63618     11.15222         0.620508      0.455276      0.507908
O       3.85734      5.60272      2.64029        -0.567926      0.936705      0.257690
O       3.90891      5.64910     15.74461        -1.278063      0.686822     -0.533661
O      15.35480      5.89955      2.52549        -0.617694      0.273493      0.522109
O      15.28667      5.94374     15.88093         0.694006     -0.310396     -0.690421
O       3.79529      5.78094      6.98358         0.460952      0.157136      0.183596
O      15.34660      5.88779      6.95882        -0.244211      0.324342      0.371891
O       3.90026      5.87852     11.37711        -0.981857     -0.501421      0.349935
O       0.01872      5.68400     11.33216        -0.831623     -0.338186      0.319711
O       3.94878      9.56408      2.69578        -1.929649     -0.362663      0.342301
O       3.84610      9.55953     15.74638        -0.494048     -0.333204      0.239290
O      15.35900      9.81703      2.38975         0.230526      0.075217      0.659841
O       0.03249      9.47009     15.80317        -0.440165      0.750616      0.420771
O       3.81460      9.69157      6.92343         0.335902     -0.181651     -0.086801
O       0.00607      9.62175      6.91684         0.158728     -0.318609      0.588734
O       3.73353      9.67129     11.48262         0.533711     -0.152084     -0.651568
O       0.00486      9.38790     11.25915        -0.669745      0.381979      0.107082
O       7.60531      2.06089      2.71135         0.014231     -0.361310     -0.006776
O       7.70386      1.94164     15.85809        -0.313345      0.651644     -0.683351
O       7.57176     13.50725      2.65017         0.212314      0.148095      0.369416
O       7.66760     13.56870     15.81300        -0.035893     -0.490033     -0.157700
O       7.58040      1.96124      7.26887         1.043864      0.148448     -0.530413
O       7.65244     13.49615      7.03973        -0.398141      0.033630      0.035140
O       7.65780      2.09208     11.31021         0.045818     -0.248381      0.394749
O       7.77363     13.40443     11.25986        -0.909083      0.360913      0.676080
O       7.60362      5.78547      2.60482         1.078645      0.550893      0.042000
O       7.71581      5.81575     15.82602         0.346322      0.587800      0.012020
O       7.72499      5.85749      7.06446        -0.301557      0.731111     -0.104896
O       7.70462      5.87783     11.39612         0.363328     -0.000192     -0.146047
O       7.66946      9.81689      2.55445         0.458365     -0.413534      0.104022
O       7.66508      9.73469     15.68926         0.687159     -0.247040      0.390782
O       7.64977      9.74564      6.85585         0.513143     -0.561573      0.284068
O       7.68609      9.87630     11.20338        -0.229068     -0.684620      0.343279
O      11.44642      2.05246      2.75786         0.401115      0.434666     -0.225538
O      11.50010      1.89509     15.70854        -0.497462      0.607207     -0.115655
O      11.53863     13.63044      2.54590        -0.904866      0.096772      0.566458
O      11.57384     13.61478     15.70239        -1.132095     -0.085801      0.000326
O      11.45129      1.91621      6.88667         0.161596      0.334842      0.235905
O      11.41923     13.55106      6.84326         1.474484      0.337746      0.530830
O      11.54224      2.07269     11.52976        -0.409776     -0.163453      0.179874
O      11.57802     13.55712     11.41297        -0.322843      0.019792      0.052645
O      11.46207      5.94113      2.74636         0.935422     -0.565790     -0.069535
O      11.50869      5.93870     15.85945         0.161991     -0.126226     -0.421739
O      11.51028      5.83105      6.96158        -0.336194      0.589610     -0.114757
O      11.47064      5.69391     11.49614         1.070777      0.963019     -0.099004
O      11.53663      9.79630      2.69421         0.237444      0.036981     -0.350181
O      11.53886      9.74433     15.64976         0.744584      0.003138      0.369215
O      11.63915      9.74334      6.83656        -2.058773     -0.024446      0.215295
O      11.51143      9.83168     11.44913         1.008152     -0.132049     -0.106035
O       1.84908      3.84090      2.68636         0.428708     -0.683033     -0.086162
O       1.91213      3.77946     15.78377        -0.422437      1.236511     -0.480223
O       1.88247      0.11628      2.56019        -0.217915     -1.394247      0.396669
O       1.84690     15.21331     15.64492         0.102287      2.133567      0.343846
O      13.37353      3.90845      2.68929        -0.669125      1.088781     -0.106412
O      13.30117      3.96653     15.46283         0.512808      0.643625      0.880554
O      13.40229      0.25710      2.74470         0.158166     -0.198826     -0.699739
O      13.56463     15.46306     15.74782        -0.055020     -0.133567     -0.073991
O       1.88852      3.88609      7.02301        -0.170939      0.397095      0.835591
O       1.86638      0.10164      7.27242         0.248296     -0.628835     -0.264046
O      13.25089      3.96986      7.05877         0.454027     -0.126311     -0.106721
O      13.47314     15.54114      7.04307        -0.488365      0.204893      0.182314
O       2.10668      3.78615     11.37374        -0.544658      1.714466      0.327238
O       1.96785     15.30554     11.26159         0.063775      1.552040      0.249569
O      13.45738      3.96976     11.47594         0.085412      0.720587      0.031952
O      13.39454     15.53322     11.30907         0.213556     -0.321451      0.472862
O       1.87300      7.63375      2.59613         0.419192      0.288252      0.499313
O       1.83701      7.66032     15.82537         0.560218     -1.560327     -0.126849
O      13.43648      7.78560      2.67367         0.005547      0.745592     -0.303420
O      13.48379      7.89086     15.85291        -0.388291     -1.280330     -0.329983
O       1.97906      7.74668      6.78701        -0.357718     -0.635771      0.268766
O      13.47743      7.84295      6.95651         0.029357     -0.254354      0.143504
O       1.94048      7.69229     11.32027         0.061614     -0.615389      0.074189
O      13.30647      7.83063     11.10995         0.188016     -0.741779      0.710104
O       2.02744     11.50105      2.66450        -0.736568      0.451718      0.068154
O       2.04104     11.41533     15.67139        -0.520955      1.004966      0.493984
O      13.47155     11.74955      2.62081        -0.142414     -0.980854      0.043614
O      13.45209     11.68095     15.80918         0.084272     -0.645967      0.100420
O       1.88890     11.66480      6.94698        -0.161837     -1.273758      0.236613
O      13.51156     11.67543      6.86793        -0.358341      1.312672      0.148191
O       1.84889     11.52086     11.16281         0.202239     -0.618191      0.393250
O      13.56785     11.68045     11.35449        -0.481439     -0.556091     -0.070604
O       5.74526      3.93147      2.65115         0.220368     -0.778374      0.172318
O       5.85562      3.94800     15.76584        -0.167447     -0.163771     -0.220301
O       5.70981      0.15106      2.73814        -0.187294     -0.035322     -0.100318
O       5.75725      0.11499     15.69204         0.027099     -0.691835     -0.077446
O       5.83885      4.02539      7.01921        -0.260779     -1.250710      0.405054
O       5.65436     15.41653      7.00772         0.110863      0.044162      0.428467
O       5.65110      3.88723     11.35026         0.621235     -0.079048      0.316165
O       5.81541     15.44539     11.42145         0.173172     -0.620871      0.147361
O       5.74189      7.65128      2.70022         0.119071      1.151724      0.177394
O       5.72880      7.75553     15.78559         0.416815     -0.992319     -0.250366
O       5.78272      7.71077      6.94964        -0.170191      1.736775      0.147260
O       5.74673      7.78023     11.37750         0.440200      0.353090      0.260916
O       5.57863     11.61274      2.53812         0.259973      0.091871      0.313101
O       5.68075     11.53470     15.73968         0.398917      1.283686      0.212793
O       5.70476     11.59640      6.96682        -0.121426     -0.239811      0.204949
O       5.69967     11.52915     11.47441         0.226329      0.714229     -0.144281
O       9.56348      3.95148      2.62739         0.358642     -0.038567      0.284534
O       9.52705      3.91718     15.69669         0.589835      0.308409      0.060095
O       9.64378      0.20238      2.73874        -0.477983     -1.055354     -0.092128
O       9.52680      0.15181     15.78604         0.180121     -1.168800     -0.343087
O       9.53891      4.01715      6.98109         0.151619     -1.751774      0.211617
O       9.52295      0.14270      7.03713        -0.239455     -0.771902      0.193338
O       9.58654      3.94230     11.29377        -0.108264     -0.174871      0.498185
O       9.60577     15.39804     11.50972        -0.089949      0.018028     -0.196577
O       9.66201      7.81273      2.66585        -0.817642      0.802853      0.145031
O       9.63583      7.83394     15.73983        -0.207752     -1.021152      0.637175
O       9.61308      7.74730      6.89782        -0.078151      1.550836      0.063899
O       9.67858      7.87801     11.41022        -0.065759     -1.037789     -0.209472
O       9.62643     11.73427      2.70693         0.010070     -0.576372     -0.242988
O       9.57923     11.53917     15.73275        -0.025302      1.862492      0.406822
O       9.63403     11.65852      6.92348        -0.208068     -1.071322     -0.136126
O       9.66920     11.65076     11.42344         0.233052     -0.204780      0.464924
