  # total energy = -7880.84455085 
CRSYTAL
PRIMVEC
    15.3600000000000000    0.2300000000000000    0.0000000000000000
     0.0000000000000000   15.3600000000000000    0.0000000000000000
     0.0000000000000000    0.0000000000000000    17.440000000000000
PRESSURE
2.81272 2.36743 3.32035 0.264742 -0.301584 -1.50474
PRIMCOORD
320 1
Pb       3.89812      3.91032      4.15911        -0.138332     -0.509022      0.421507
Pb       3.77079      4.02745     17.37641        -0.151289     -0.356224      0.041388
Pb       3.74494     15.23927      4.28331        -0.126165      0.737454      0.152776
Pb       3.74762     15.39120     17.38801         0.039970      0.417560      0.429074
Pb       0.12745      3.87955      4.36170        -0.192744     -0.386891     -0.237859
Pb       0.02628      3.85938      0.05736        -0.327558     -0.069360      0.361793
Pb      15.21662      0.33145      4.27127         1.051132     -0.591672      1.078715
Pb      15.25129     15.53351      0.05211         0.326253      0.379344      0.185674
Pb       3.84832      3.90812      8.59510        -0.045316     -0.328644     -0.499742
Pb       3.75908     15.28042      8.65024        -0.090438      0.665702     -0.224746
Pb       0.11765      3.94292      8.66419        -0.507569     -0.310661     -0.150230
Pb       0.03193     15.29251      8.61399         0.049219      0.090849     -0.084789
Pb       4.01882      3.93699     13.07796        -1.125508     -0.190234      0.720552
Pb       3.70328      0.20764     13.11220         0.140825     -0.131783      0.244990
Pb       0.00927      3.80375     13.04489        -0.012383     -0.528458      0.497517
Pb      15.32460      0.28368     13.00417        -0.232484     -0.322995      0.161829
Pb       3.92525      7.73689      4.17829        -0.711427     -0.311123      1.086195
Pb       3.73286      7.78565     17.38580         0.447153     -0.276360     -0.347732
Pb      15.14986      7.75302      4.27435         0.393662      0.378658      0.102413
Pb      15.31503      7.83869     17.30877        -0.101843      1.011712      1.129235
Pb       3.86061      7.60963      8.63482        -0.281024      0.404555      0.269542
Pb      15.27725      7.91818      8.57209         0.053521     -0.483008      0.351908
Pb       3.88168      7.61742     12.96629        -0.083757      0.687044      0.630774
Pb      15.34651      7.82770     12.96666        -0.097116      0.775303      0.108108
Pb       3.96547     11.38741      4.31852        -0.312031      0.778689     -0.322250
Pb       3.89268     11.54316     17.37732        -0.040361      0.156709      0.117675
Pb       0.02581     11.35618      4.24665        -0.090186      0.604529      0.062176
Pb       0.12007     11.66402     17.33796        -0.784533     -0.589045      0.469368
Pb       3.68173     11.43123      8.68252         0.151058     -0.117641      0.760039
Pb      15.32176     11.71433      8.49960        -0.322664     -0.049155      1.302335
Pb       3.83915     11.58618     13.00590        -0.429634     -0.200946      0.192145
Pb      15.32082     11.76357     12.89052         0.463611     -0.466688      0.223243
Pb       7.60701      3.82799      4.34441        -0.115470     -0.001301      0.141715
Pb       7.61998      4.11270     17.41265         0.092975     -1.123214      0.176841
Pb       7.63705     15.35937      4.30615        -0.149663      0.834733      0.922355
Pb       7.78328      0.16234      0.09476        -0.276146      0.025116     -0.153073
Pb       7.67243      3.83647      8.65752        -0.252081      0.780847      0.428187
Pb       7.77384     15.32417      8.75328        -0.569101      0.742601     -0.075208
Pb       7.72786      3.92624     13.03107         0.077911      0.128743     -0.263504
Pb       7.64966     15.33226     13.11426         0.084551      0.912396      0.287124
Pb       7.65946      7.77545      4.32191         0.465435      0.224218     -0.210514
Pb       7.77689      7.74365     17.41969        -0.545882      1.294684      0.112084
Pb       7.73497      7.86713      8.73371        -0.234248     -0.655123      0.561550
Pb       7.65072      7.71677     13.04183        -0.032223      0.321384      0.150802
Pb       7.80114     11.68249      4.42018        -0.289710     -0.179262     -0.507471
Pb       7.57919     11.70742     17.39825         0.234287     -0.400450     -0.059017
Pb       7.55000     11.64731      8.80565         0.136723     -0.401255      0.312893
Pb       7.61753     11.62256     13.11795        -0.054672     -0.369033      0.386446
Pb      11.47958      4.14596      4.34806        -0.354533     -0.458535      0.186447
Pb      11.40744      3.96116     17.38780         0.738043     -0.429193      0.551768
Pb      11.48138      0.22036      4.39967        -0.264298     -0.078696      0.281891
Pb      11.44798     15.51997     17.38765         0.416572      0.460269      0.609873
Pb      11.39042      3.79857      8.70877         0.370801      0.956398     -0.260708
Pb      11.58403     15.45165      8.63939        -0.361813      0.073068     -0.063127
Pb      11.43142      3.85398     12.98541         0.170309      0.889207     -0.181225
Pb      11.58625      0.27362     13.06097        -0.058564     -0.802656     -0.277118
Pb      11.49363      7.75570      4.22622        -0.353714      0.484982      0.609600
Pb      11.50747      7.82043     17.33302         0.391590      0.852809      1.059972
Pb      11.49396      7.75520      8.70409        -0.057946     -0.160946     -0.317649
Pb      11.40479      7.76743     13.11712         0.663487      0.064917     -0.179581
Pb      11.56136     11.74459      4.18107        -0.317635     -0.617693      1.459753
Pb      11.51644     11.65075     17.40374         0.829665     -0.093767      0.403157
Pb      11.34414     11.70418      8.75977         0.672369     -0.060832     -0.157729
Pb      11.62285     11.68413     13.02180        -0.078973     -0.039725      0.442198
Ti       1.86661      1.96502      2.37255         0.183320     -0.676341     -0.333037
Ti       1.76460      2.00706     15.55409         2.098684     -0.105387      0.122291
Ti       1.84474     13.42531      2.38408         0.176408      0.602009      0.972715
Ti       1.91342     13.54289     15.39316        -0.339198     -0.470855     -0.061581
Ti      13.38428      2.12649      2.46122        -0.196215      0.945308     -0.615561
Ti      13.39999      2.15668     15.39872        -0.065075     -0.070328      2.443102
Ti      13.41487     13.68569      2.38804        -0.281308     -1.335740     -0.494709
Ti      13.43644     13.61979     15.42791        -0.337590      0.038277      0.542329
Ti       1.87835      1.88814      6.72026         0.960337      0.086715     -0.594058
Ti       1.92308     13.28287      6.58036        -0.745153      2.364002     -0.134770
Ti      13.47603      2.13085      6.74457        -0.176271     -0.064949      0.733860
Ti      13.41961     13.59837      6.63157        -0.778766      0.348916      0.503850
Ti       1.95295      1.97731     11.05270        -0.728041     -0.395452     -0.513911
Ti       1.95513     13.50391     11.07227        -0.615031     -1.114914     -0.883599
Ti      13.43498      2.06684     10.93969         1.412207     -0.102936     -0.601848
Ti      13.41641     13.55812     10.94567         0.041292      0.567222      0.580511
Ti       1.86874      5.88550      2.31062         0.224289     -1.957152     -0.128435
Ti       1.84949      5.85565     15.32902         1.115754     -1.147684      0.791873
Ti      13.38629      5.89160      2.30551         0.048660     -0.106325     -0.212682
Ti      13.45707      5.91160     15.45554        -0.075360     -0.494205     -0.622584
Ti       1.95181      5.79756      6.60576        -0.926571     -0.595478      0.860099
Ti      13.35306      5.88541      6.61671        -0.451556      0.017090      1.136981
Ti       1.93752      5.68415     11.08418         0.207342      0.370380      0.630386
Ti      13.54078      5.85614     11.11759        -2.148609      0.289163      1.397894
Ti       1.87949      9.60285      2.29484         0.260503      0.205273      1.743562
Ti       1.91855      9.66376     15.32850        -0.342592     -0.093379     -0.509954
Ti      13.47860      9.80883      2.35229        -1.130689     -0.474429     -1.534018
Ti      13.49897      9.74254     15.39466        -0.845946      1.224230      0.710764
Ti       1.86411      9.54709      6.59476         0.982009     -0.680966     -0.855222
Ti      13.34377      9.78165      6.66696        -0.966087     -0.286648     -0.614915
Ti       1.97177      9.50579     11.02791        -1.101070      1.001038      0.553649
Ti      13.38534      9.73452     10.95412         1.236286     -0.204447      2.450732
Ti       5.75478      1.94990      2.25799        -0.659330      0.278284      1.130335
Ti       5.69364      2.03215     15.48987        -0.205613      0.350265      1.692180
Ti       5.73240     13.54639      2.31911        -0.267960     -0.971337      1.143175
Ti       5.76211     13.63764     15.46083         0.344191     -1.365828      0.480187
Ti       5.73161      1.98295      6.70388        -0.971741     -0.478680     -1.549238
Ti       5.66572     13.43633      6.81769         1.143448      1.747890     -1.709331
Ti       5.77154      2.00970     11.00525        -0.273418     -0.154076      0.055056
Ti       5.70470     13.61114     11.12255        -0.182726     -0.397427      3.130897
Ti       5.75713      5.87748      2.17482        -0.223120     -0.294638      3.621552
Ti       5.81120      5.88478     15.41601        -1.541469      0.247718      0.187182
Ti       5.80533      5.87121      6.66119        -0.204446     -0.068167     -0.287365
Ti       5.78002      5.82391     11.02589         0.630633      0.559076     -1.216306
Ti       5.79061      9.67801      2.30386         0.887933      0.578299     -0.787749
Ti       5.74045      9.67218     15.37619         0.869608      0.083253     -0.209210
Ti       5.73888      9.69371      6.77243        -0.236694     -0.950339     -0.031145
Ti       5.72896      9.73900     11.12528         0.580180     -0.650466      1.312959
Ti       9.57373      2.06581      2.38813        -0.601719      0.142020      0.535923
Ti       9.46247      2.06121     15.41581         0.333709      0.732203     -0.716788
Ti       9.61442     13.62133      2.42382         0.365621     -0.154982     -1.245940
Ti       9.67981     13.53368     15.46775        -1.201562      0.458296      1.168700
Ti       9.47228      2.09013      6.76744         0.352108     -1.270927     -1.275865
Ti       9.51288     13.52404      6.80777        -0.327356      1.265300     -1.395611
Ti       9.62427      2.04293     11.01372        -0.760869      0.042146      0.813196
Ti       9.52567     13.55929     11.15585         1.282049      0.611185     -0.206874
Ti       9.56000      5.89120      2.22728        -0.429306     -0.088741      2.647189
Ti       9.68036      5.94230     15.50695        -1.948669     -0.461245     -2.236717
Ti       9.47722      5.96517      6.72240         2.518522     -0.536410      0.184323
Ti       9.63906      6.01278     11.00701         0.114319     -1.745198      0.045757
Ti       9.70227      9.75478      2.32433        -1.247361     -0.088336      0.459006
Ti       9.63811      9.82551     15.42001        -0.068789     -1.214539      0.307747
Ti       9.55133      9.79718      6.81848         0.478253     -1.084442     -0.115321
Ti       9.62005      9.77422     11.13905        -0.606080      0.028700      0.226750
O       1.65226      1.94539      0.62362         0.413157     -0.065706     -0.808137
O       1.89811      1.99720     13.82527        -0.002164     -0.472696     -1.179478
O       1.66298     13.47884      0.66487         0.498010     -0.174694     -1.425403
O       1.79194     13.58238     13.65082         0.362127     -0.145805     -0.299839
O      13.37961      2.17191      0.72682         0.164592     -0.216012     -0.029579
O      13.39132      2.12917     13.69805        -0.186360     -0.210166     -1.976899
O      13.29957     13.51453      0.63746         0.490172      0.798343     -0.363559
O      13.35335     13.81399     13.71214        -0.015252     -0.134363     -1.127033
O       1.81205      1.93775      4.99675        -0.021434      0.074310     -1.378309
O       1.92695     13.46425      4.84402        -0.191103     -0.759164      0.120435
O      13.40589      2.06438      4.99789        -0.134418      0.441161     -0.474633
O      13.19402     13.71301      4.92020         0.830046     -0.429015     -0.172223
O       1.89793      1.97104      9.28216         0.272647     -0.183133     -0.065939
O       2.10213     13.51054      9.27583        -0.527231     -0.038358      0.670116
O      13.49910      2.00032      9.15660        -0.310912      0.291357      0.481577
O      13.39270     13.47561      9.21356         0.095764      0.186868     -0.790034
O       1.93428      5.77066      0.56167        -0.000345      0.471957     -0.353435
O       1.84669      5.79647     13.58173        -0.077286      0.079580     -0.191938
O      13.29608      5.77555      0.58854         0.083504      0.563863     -0.990026
O      13.59505      5.83870     13.68691        -0.524426      0.300740      0.262748
O       1.86735      5.80786      4.90101        -0.162816      0.018774     -1.595289
O      13.34086      5.88661      4.86888         0.255070      0.002947     -1.067186
O       1.94563      5.73647      9.35993        -0.064482     -0.245650     -1.247193
O      13.46967      5.90579      9.45326        -0.020653      0.095076     -2.506915
O       1.84325      9.60634      0.59340         0.102661     -0.103325     -1.492201
O       1.90133      9.56862     13.56951         0.118194      0.243207      0.707610
O      13.39845      9.74229      0.58222         0.222805      0.207741      0.205510
O      13.40935      9.76975     13.69543         0.129547     -0.158501     -1.437006
O       1.91405      9.57630      4.77917        -0.288245      0.246174      1.758726
O      13.38257      9.76755      4.88522         0.179750     -0.073858      0.989038
O       1.96169      9.53922      9.28598         0.113707      0.060371     -0.806677
O      13.36545      9.76294      9.25480        -0.011216      0.018772     -1.709460
O       5.73660      1.98395      0.54497         0.024573     -0.183007     -0.766234
O       5.67445      2.23028     13.78462         0.255345     -0.492607     -1.410763
O       5.65627     13.53700      0.61526         0.360099     -0.123862     -1.646538
O       5.95457     13.48012     13.74805        -0.641085      0.530428     -0.984259
O       5.86104      2.01868      4.90075        -0.159685     -0.172822      0.667615
O       5.91768     13.49087      5.05779        -0.446310     -0.277921      0.143229
O       5.59367      1.98291      9.25769         0.273063      0.527504      0.213400
O       5.68471     13.48527      9.47651        -0.026334     -0.152935     -3.578559
O       5.61776      5.83569      0.52100         0.006992      0.429995     -2.770606
O       5.81739      5.93479     13.65865         0.024196     -0.450089     -0.668065
O       5.86233      6.08506      4.91064        -0.257900     -0.544080     -0.109888
O       5.68825      5.76601      9.21274        -0.010306     -0.014156      0.947686
O       5.63188      9.68332      0.55002         0.271468     -0.018112     -0.305772
O       5.80414      9.67612     13.59575        -0.247820      0.154828      0.457560
O       5.78960      9.69881      5.03028         0.044865     -0.002044     -0.734299
O       5.60909      9.77728      9.43233         0.118522     -0.122478     -2.360812
O       9.48921      2.01419      0.66286         0.227504      0.233492     -1.464976
O       9.50391      2.12825     13.58055         0.302913     -0.146217      1.013867
O       9.63017     13.55860      0.65036         0.030399      0.282560     -0.348026
O       9.56660     13.63053     13.76778         0.268274      0.084054     -1.485421
O       9.39441      2.09584      4.98688         0.068895     -0.102145      0.158077
O       9.35865     13.50046      5.02183         0.280266      0.055173     -0.167495
O       9.54357      1.91051      9.28483         0.041388      0.198621     -0.782576
O       9.52990     13.65565      9.39068        -0.236531     -0.441496     -0.108765
O       9.73316      5.83807      0.54169        -0.647996      0.306174     -2.203612
O       9.63746      5.96756     13.66967        -0.197909     -0.049353      0.878827
O       9.53535      5.98681      4.99086        -0.174838     -0.151820     -1.390743
O       9.68812      5.91082      9.26151        -0.234803      0.385076     -0.673720
O       9.72622      9.65519      0.60591        -0.051986      0.338428     -0.984845
O       9.64778      9.70762     13.68858         0.141277     -0.015804     -1.140119
O       9.48047      9.73639      5.09913        -0.032029      0.266124     -0.737491
O       9.74188      9.72822      9.39685        -0.428659      0.048911     -0.529213
O       3.72806      1.95384      2.69080         1.569439     -0.072312      0.216418
O       3.76544      1.93010     15.88641         0.557936      0.208256      0.283336
O       3.76650     13.38178      2.75526         0.843579      0.105773      0.021906
O       3.82876     13.48402     15.73204        -0.229299      0.571097      0.252084
O      15.32939      2.17575      2.89397        -0.643457     -0.132178     -0.202300
O      15.35238      2.25864     15.79057        -1.899688     -0.453767      0.398736
O      15.27226     13.71197      2.76715         0.039753     -0.592754      0.276681
O      15.26976     13.71892     15.76674         1.053258     -0.166079      0.533126
O       3.79844      2.06119      6.88913         0.481109     -0.221510      1.044923
O       3.74845     13.42851      7.00639         0.508306     -0.183971      0.365791
O       0.02926      1.88321      7.06446        -1.684219      0.250767      0.517838
O      15.34767     13.59693      7.12208        -0.127449     -0.492638     -0.655262
O       3.82796      1.92058     11.51408         0.160915      0.289245      0.061987
O       3.83283     13.67679     11.49479        -0.359011     -0.540093      0.541568
O       0.00131      2.03969     11.46543        -0.093158     -0.769231     -0.114597
O       0.00757     13.36967     11.35490        -0.105240      0.122132      0.079560
O       3.77516      5.81744      2.71242         0.737718      0.214841     -0.061557
O       3.80983      5.84335     15.76088        -0.391001      0.095250     -0.049696
O      15.28786      5.95203      2.54208         0.561902      0.189602      0.859695
O      15.30510      6.05672     15.93933         0.157036     -0.521440     -0.856101
O       3.79342      5.77941      6.92332         0.463877      0.221244      0.606754
O      15.25457      5.98323      7.02581         0.590110      0.102137      0.257212
O       3.82400      5.83384     11.50828         0.756702     -0.156523     -0.378645
O       0.02328      5.53634     11.44732         0.540542      0.702464      0.074013
O       3.78310      9.78510      2.66373         0.348383     -0.800731      0.193380
O       3.83053      9.64141     15.72756        -0.719681      0.161365      0.304492
O      15.32686      9.73698      2.85342         0.055617      0.438323     -0.418911
O       0.01673      9.60302     15.71176         0.353827     -0.141422      0.355665
O       3.81555      9.58051      7.01447        -0.564080      0.316833      0.229180
O      15.29351      9.79340      7.04141        -0.077652      0.093368     -0.248580
O       3.84353      9.63525     11.51882        -0.119597     -0.300635      0.192498
O       0.03659      9.67825     11.40821        -0.658037     -0.777124     -0.103241
O       7.61741      1.89765      2.67272        -0.479096     -0.040015      0.241542
O       7.60729      2.14671     15.90480         0.601589     -0.660325     -0.169617
O       7.75375     13.69156      2.74977        -1.526818     -0.569945     -0.368863
O       7.70973     13.44872     15.83470         0.100694      0.562505      0.497150
O       7.57127      2.05594      7.21780         0.539714     -0.492724      0.087501
O       7.56826     13.46514      7.35808        -0.130532      0.067655     -0.180856
O       7.65020      2.11982     11.39311         0.000680     -0.033941     -0.038309
O       7.61704     13.56162     11.64730         0.587143     -0.071053     -0.820831
O       7.65605      6.07418      2.48098        -0.421511     -0.056607      0.038877
O       7.60918      6.00275     15.87152         1.201115     -0.475768      0.198929
O       7.70867      5.90966      7.04015        -2.189802     -0.201434      0.830943
O       7.70920      5.75330     11.36693        -0.648485      0.275452      0.329710
O       7.68443      9.62155      2.58645        -0.240742      0.064840      0.361675
O       7.72648      9.76119     15.69090        -0.841719     -0.084567      0.771343
O       7.65058      9.62741      7.30349        -0.688486      0.873548     -0.189752
O       7.69677      9.83525     11.41626         0.011448     -0.063950      0.112357
O      11.42083      2.28217      2.82535         0.925006     -0.569110      0.118203
O      11.49516      2.16239     15.80080        -0.854994     -0.185327     -0.273003
O      11.54753     13.61770      2.90151        -1.237795      0.401992     -0.432143
O      11.55269     13.74999     15.91934        -0.878393     -0.498124     -0.464338
O      11.36358      1.92947      7.13910         1.136209      0.413677     -0.037950
O      11.35413     13.61091      7.08485         1.500069     -0.055220      0.288251
O      11.59283      1.97522     11.33228        -1.190695      0.291713      0.434250
O      11.53614     13.52813     11.34075        -0.509858      0.469148      0.573624
O      11.43695      5.83131      2.65200        -0.012560     -0.006251      0.632653
O      11.42679      5.79120     15.79212         2.077753      0.443065      0.033664
O      11.45997      5.80591      6.97751         0.254562      0.364950      0.639309
O      11.48312      6.03375     11.46351         0.412073     -0.241570      0.390836
O      11.53669      9.76389      2.83663        -0.265365      0.068894     -0.310469
O      11.54015      9.78158     15.84879        -0.267782     -0.221724     -0.005433
O      11.41528      9.72646      7.23062         0.828167      0.337395     -0.328796
O      11.55335      9.79867     11.55576        -0.484959     -0.491233     -0.308294
O       1.96111      3.82935      2.67108        -0.737867      1.220397      0.736910
O       1.85092      3.94719     15.87735         0.121483      0.089295     -0.126349
O       1.85593     15.36305      2.70335         0.151847     -0.041537      0.459909
O       1.85313     15.33846     15.97428        -0.239897      0.692626     -0.307524
O      13.48630      4.03204      2.75658        -0.428174     -0.005553      0.670347
O      13.46116      4.06991     15.95153        -0.253650     -0.365990     -0.524820
O      13.33889     15.50929      2.83216        -0.192095      1.835824     -0.219188
O      13.44914      0.31876     16.02000        -0.255368     -0.341117     -0.862208
O       1.83220      3.86892      7.00072         0.045815      0.741448      0.569804
O       1.83588     15.30092      6.98439         0.471206     -0.278728      0.637970
O      13.34216      4.01638      7.23453         0.371427     -0.567861     -0.587326
O      13.49605     15.52400      6.99632        -0.394681     -0.244526      0.647890
O       1.98846      3.78477     11.49131         0.173197      0.831119      0.064436
O       1.79110     15.38233     11.59955         0.676325      0.592249     -0.616720
O      13.36160      3.92653     11.48678        -0.255522      0.534899     -0.041370
O      13.48077     15.50214     11.30134         0.042627      0.297614      0.512878
O       1.77849      7.65593      2.71556         0.566557      1.314297     -0.057730
O       1.81266      7.69080     15.84271         0.552363      0.785845     -0.344837
O      13.35488      7.87362      2.66783         0.142986     -0.872669      0.396706
O      13.28272      7.85609     15.80785         0.747093     -0.933478     -0.196297
O       1.86169      7.69591      7.16407         0.000541      0.044871     -0.493818
O      13.28636      7.80016      7.05407         0.465250      0.766297      0.068685
O       1.92651      7.62806     11.39899        -0.408654     -0.169455      0.300836
O      13.48374      7.84083     11.48755         0.196404      0.223110     -0.237989
O       1.85877     11.53196      2.67686        -0.851973     -0.811957      0.386235
O       1.93964     11.62571     15.89162        -0.222516     -0.831106     -0.654336
O      13.28863     11.68622      2.63925         1.109819      0.228350      0.651767
O      13.38761     11.71200     15.68844        -0.040155      0.471735      0.332741
O       1.92520     11.43231      7.10020        -0.429744     -0.101932     -0.493174
O      13.24917     11.71375      6.99083         0.712249     -0.693472      0.193303
O       1.96069     11.49002     11.32388         0.549586      1.270309      0.587857
O      13.41912     11.66945     11.48907         0.050779      0.091487     -0.267787
O       5.77743      3.93746      2.59834        -0.039806      0.190917      0.217845
O       5.77393      3.97514     15.93871        -0.400615      0.235832     -0.406959
O       5.59911     15.36841      2.73208         0.388674      0.699610      0.014704
O       5.79043      0.09939     15.89362        -0.007948      0.416714     -0.296432
O       5.76032      3.96259      6.91039         0.095279     -0.040978      0.781540
O       5.65899     15.40581      7.13591         0.122604     -0.232864      0.114143
O       5.69199      4.00585     11.56416         0.347725     -1.196843     -0.649346
O       5.71560      0.16303     11.51251         0.644993     -0.191326      0.102531
O       5.59248      7.79418      2.69660         0.652511     -0.178363     -0.500286
O       5.69810      7.79547     15.75662         0.177162      0.207678      0.442811
O       5.65312      7.73613      7.13586         0.746282      0.474712      0.333342
O       5.87263      7.77461     11.42362        -0.486418     -0.687844      0.061216
O       5.84587     11.60322      2.67691        -0.233943      0.070914      0.551595
O       5.70248     11.64829     15.87313         0.161883     -0.694032      0.047934
O       5.69834     11.57502      7.19142         0.083239     -0.504848      0.295429
O       5.68573     11.60515     11.60029         0.082624      1.067565     -0.216550
O       9.30918      3.94823      2.75764         0.748461      1.414284     -0.289037
O       9.46302      3.99344     15.80546         0.092144      0.154924      0.188202
O       9.66855      0.17647      2.69573         0.148035     -0.247132      0.680257
O       9.50506      0.20921     15.88906         0.199377     -0.475254     -0.286915
O       9.53888      3.93499      7.05554        -0.233229      0.318512      0.772900
O       9.44852     15.41201      7.11382        -0.375237      0.646766      0.364256
O       9.66676      3.98675     11.18251         0.328685     -0.784585      1.099707
O       9.60138      0.16276     11.54584        -0.285916     -0.613148      0.127070
O       9.63381      7.87715      2.79214         0.112779     -1.143099     -0.383343
O       9.59677      7.83145     15.96018         0.175153     -0.254935     -0.564047
O       9.51770      7.81175      7.13535         0.403364      0.579480      0.606886
O       9.40925      7.83125     11.44529         0.841741      0.816776      0.130735
O       9.52414     11.71188      2.72968         0.413207     -0.816741      0.314822
O       9.66858     11.64454     15.85715         0.009532      1.000504     -0.058632
O       9.46611     11.68740      7.23054         0.006065     -1.015221      0.384640
O       9.61162     11.69973     11.55238        -0.030719     -0.086881     -0.125337
