  # total energy = -7882.43993548 
CRSYTAL
PRIMVEC
    15.3600000000000000    0.0000000000000000    0.0000000000000000
     0.0000000000000000   15.3600000000000000    0.0000000000000000
     0.2400000000000000    0.0000000000000000    17.440000000000000
PRESSURE
2.59744 2.58887 2.87405 0.100543 -0.620317 -0.012041
PRIMCOORD
320 1
Pb       3.81766      3.78065      4.34542         0.304639      0.521210      0.380889
Pb       4.04432      3.82674     17.39078        -0.178863      0.301799     -0.092332
Pb       3.89867      0.05225      4.30083         0.349706     -0.343231      0.628716
Pb       3.98438     15.34959     17.39128         0.142152     -0.032471      0.385178
Pb      15.41111      3.88302      4.30730        -0.540922     -0.262863      0.210849
Pb       0.25523      3.79382     17.37856        -0.001358      0.249257      0.758588
Pb      15.39479      0.04781      4.27251        -0.139247     -0.231718      1.054983
Pb       0.02629     15.24123      0.02576        -0.277536      0.129454      0.011258
Pb       3.84691      3.93004      8.72815         0.231828     -0.707220      0.489436
Pb       3.98337     15.32022      8.53904        -0.387116      0.060769      1.241146
Pb      15.47827      3.79975      8.64546         0.281389     -0.099218      0.591568
Pb      15.39726     15.34176      8.60186         0.514891     -0.360796      0.457473
Pb       4.05610      3.83660     12.98202        -0.410052      0.046920      0.913032
Pb       3.98809      0.00122     13.00167         0.044595     -0.428557      1.186060
Pb      15.47224      3.89746     12.97619         0.630620     -0.701792      1.412810
Pb      15.50029     15.32912     13.06680         0.278117      0.049346      0.492088
Pb       3.87669      7.69051      4.39138         0.299510     -0.263590     -0.400703
Pb       4.07646      7.71947     17.38372        -0.161051     -0.182549      0.128688
Pb       0.06225      7.65429      4.28498        -0.191957      0.273423      0.702547
Pb       0.25111      7.62428     17.43757        -0.238675      0.307055      0.118380
Pb       3.98220      7.57250      8.61652        -0.453266      0.323184      1.279491
Pb      15.36259      7.59863      8.57105         0.664676      0.237881      0.999899
Pb       3.90886      7.50694     13.14887         0.413797      1.183326      0.279799
Pb       0.22915      7.65277     12.93737        -0.930046      0.259977      1.211915
Pb       3.97507     11.45140      4.36816        -0.744003      0.431275      0.329894
Pb       3.92872     11.56155     17.26218         0.545643      0.470129      1.324219
Pb      15.33701     11.52177      4.39696         0.257311      0.104567      0.414134
Pb      15.53904     11.55570     17.36617         0.088995     -0.231572      0.600516
Pb       3.98899     11.47845      8.65049        -0.617420      0.095875      0.485251
Pb      15.35874     11.55592      8.67932         0.406671      0.017816     -0.038926
Pb       4.03469     11.56759     12.83793        -0.097562     -0.617243      2.271341
Pb      15.51017     11.51985     12.98662        -0.250425     -0.440982      0.629973
Pb       7.73957      3.86556      4.25536        -0.077233      0.148885      0.182434
Pb       7.83059      3.70544     17.32171         0.346712      0.478826      0.729410
Pb       7.71268     15.29870      4.25779        -0.295398      0.883518      0.350185
Pb       7.92810     15.33701     17.42536        -0.294886      0.097786     -0.146670
Pb       7.80673      3.81845      8.68049        -0.150434     -0.021051      0.602847
Pb       7.70758      0.04571      8.69277         0.387691     -0.224294      0.687777
Pb       7.87234      3.81149     13.14003        -0.368935      0.029173     -0.097693
Pb       7.95413     15.25274     13.07838        -0.037360      0.044115      0.170134
Pb       7.63135      7.61873      4.41795         0.326663     -0.280497     -0.967111
Pb       7.87406      7.70616     17.26143         0.104221     -0.225151      1.089099
Pb       7.71705      7.67043      8.60217         0.522757     -0.087673      1.472602
Pb       7.82504      7.61954     12.97710        -0.127506      0.492779      0.630490
Pb       7.70417     11.55484      4.39563         0.114128     -0.349558     -0.696601
Pb       7.96919     11.44625     17.29717        -0.515443      0.527626      0.711530
Pb       7.79357     11.47569      8.66708         0.156157      0.220617      0.900915
Pb       7.83924     11.41529     12.97930         0.349228      0.087938      0.579440
Pb      11.53217      3.82748      4.22284         0.172411      0.377129      0.593301
Pb      11.80245      3.75059     17.40157        -0.396361      0.502617      0.293264
Pb      11.52056     15.35664      4.17152         0.083573      0.734122      1.741987
Pb      11.39927     15.32544      0.06492         0.538878     -0.130496     -0.437339
Pb      11.58388      3.79167      8.65438         0.377795     -0.261069      0.148715
Pb      11.67942      0.00932      8.62519        -0.059975     -0.615637      0.781531
Pb      11.69499      3.72810     13.03031        -0.139709      0.314613      0.018675
Pb      11.76279      0.08041     13.04225        -0.794496     -0.344313      0.408505
Pb      11.50747      7.70167      4.11707         0.090717     -0.300302      1.201985
Pb      11.69890      7.68923     17.37243         0.017670     -0.128241      0.117107
Pb      11.55609      7.65341      8.73968         0.236121      0.355971      0.066645
Pb      11.66979      7.68310     12.99219         0.557849      0.033069      0.538559
Pb      11.53653     11.50888      4.42219         0.484797     -0.024296     -0.425715
Pb      11.81016     11.51985     17.37501        -0.049532     -0.120565      0.214621
Pb      11.56930     11.39686      8.72242         0.222336      0.490861      0.709290
Pb      11.76132     11.41912     13.03650        -0.340603     -0.057967     -0.007124
Ti       1.94851      1.92866      2.37425        -0.427165     -0.764322     -0.635403
Ti       2.03943      1.93800     15.41322         0.014973      0.027039     -0.062068
Ti       1.93614     13.41087      2.47294         0.267983     -0.146298      0.721959
Ti       2.07467     13.46389     15.37688         0.308944      0.199870     -0.921799
Ti      13.42389      1.91589      2.30797         0.328875      0.837758      1.544804
Ti      13.65897      1.85951     15.49344        -0.572678     -0.400661      0.526630
Ti      13.46708     13.48828      2.42583         0.047118     -1.188319     -0.541089
Ti      13.57505     13.38290     15.41580         0.500524      0.517288      0.876179
Ti       2.03991      1.88185      6.74898        -0.535057      0.649976      1.230154
Ti       2.05759     13.36973      6.62265        -1.133562      0.056047      0.326970
Ti      13.54385      1.87915      6.78236        -0.037536      0.257572     -0.374789
Ti      13.44667     13.39531      6.66095         1.062687      0.126945     -0.079520
Ti       2.09672      1.85964     11.15589        -0.275804      0.539037     -1.754270
Ti       2.04914     13.43365     11.14162        -0.335258     -0.672398     -0.711451
Ti      13.64682      1.89676     11.07173         0.282552     -0.360689     -1.672262
Ti      13.49624     13.47547     11.14670         1.438721     -1.297651     -1.011014
Ti       1.95855      5.79205      2.30942        -0.196663     -0.418727     -0.430160
Ti       2.05590      5.81672     15.39384         0.502665     -0.827386     -0.570668
Ti      13.52139      5.84940      2.30630        -1.345884     -1.057789      0.752163
Ti      13.66861      5.76387     15.39967        -0.418901      0.063919      0.455521
Ti       1.99768      5.76975      6.66995         0.010697     -0.776468      0.487015
Ti      13.46962      5.70072      6.72395         0.128050     -0.296299      0.140566
Ti       2.04582      5.70074     11.05741         0.119920      0.542660     -0.545189
Ti      13.61172      5.68863     11.03173        -0.445133      0.710603      0.136364
Ti       2.04512      9.61719      2.37770        -1.010703      0.558122      0.177774
Ti       2.09893      9.62153     15.44236         0.238773      0.201963     -0.382452
Ti      13.52100      9.65553      2.40728        -0.121242     -0.035164     -1.008061
Ti      13.70673      9.51501     15.39487        -0.567857      0.743844     -2.129246
Ti       1.99172      9.53498      6.68120        -0.425915      0.155638      1.850787
Ti      13.47468      9.58751      6.71520         0.353354     -0.391328     -0.570819
Ti       2.11427      9.54367     11.10049        -0.358527      0.131735      0.952341
Ti      13.64816      9.53199     11.01636        -0.723166      0.995659      0.449358
Ti       5.75429      1.94171      2.34730         0.890379     -0.232294      0.539685
Ti       5.86093      1.90560     15.41694         0.705569      0.216167      1.298938
Ti       5.72876     13.38813      2.40217        -0.334314      0.406209     -1.048730
Ti       5.93533     13.52710     15.44166        -0.010728     -0.569949     -0.259865
Ti       5.85673      1.93316      6.72296        -0.328154      0.851267     -0.568921
Ti       5.92651     13.42171      6.66596        -1.114733     -0.075674     -0.381972
Ti       5.98899      1.86293     11.15244        -0.641249      0.655166     -0.522064
Ti       5.95928     13.48024     11.07487        -0.183450     -0.627990      0.180753
Ti       5.73421      5.68521      2.20227         0.788176      0.808536      0.525974
Ti       5.95831      5.83016     15.45346         0.093983     -1.227828     -0.090156
Ti       5.86475      5.72864      6.75753         0.083612     -1.030117      0.049775
Ti       5.94738      5.72484     11.12589        -1.595975      0.277584      0.321438
Ti       5.82115      9.56704      2.32482         0.347091     -0.822062      0.909809
Ti       5.89645      9.72038     15.45929         0.681511     -0.010217     -1.331693
Ti       5.83158      9.60641      6.70182        -0.518234     -0.822891     -0.350189
Ti       5.88014      9.61213     11.06588         0.119715     -0.902027      0.382772
Ti       9.58310      1.95809      2.26190        -0.344800      0.646505      0.807445
Ti       9.79106      1.90615     15.45384         0.102365     -0.354790      1.438974
Ti       9.58873     13.42351      2.36478         0.295935      0.035055      1.311451
Ti       9.78477     13.43092     15.39213         0.158205      0.315983     -1.014135
Ti       9.66256      1.84880      6.73761         0.733438      1.114128      0.220054
Ti       9.64091     13.50660      6.64598         1.072712     -0.873555      1.692700
Ti       9.75620      1.89639     10.96536         0.022835     -0.351364      0.543651
Ti       9.76359     13.43933     11.05767         0.069248     -0.706779      0.677023
Ti       9.60738      5.81429      2.21891        -0.275280     -0.496640      0.441014
Ti       9.79046      5.69075     15.41844         0.052309      0.514888      1.998560
Ti       9.67456      5.78966      6.75171         0.750167     -0.938444      0.314820
Ti       9.73605      5.66957     11.03175         0.121216      0.740050      0.669684
Ti       9.64146      9.65419      2.26029        -0.152282     -0.785300     -0.331206
Ti       9.82648      9.59282     15.44389        -0.140969      0.397189     -1.169606
Ti       9.66225      9.62828      6.65440         0.750920     -0.560003      0.424728
Ti       9.78870      9.53852     11.14778        -0.224275      0.984839     -0.320454
O       1.92036      1.81689      0.61042         0.059849      0.277925      0.457873
O       1.93949      1.99996     13.68081         0.320693     -0.262686      0.000576
O       1.76956     13.51026      0.73084         0.613847     -0.133843     -0.271047
O       2.10378     13.40993     13.60576        -0.147525      0.230808      0.669179
O      13.29338      1.91190      0.62300         0.312650     -0.193018     -1.579993
O      13.60640      1.91514     13.74261        -0.271843     -0.205917     -0.006474
O      13.29884     13.35559      0.66732         0.605866      0.065046      0.111088
O      13.64801     13.30859     13.69120        -0.169854      0.408041     -0.915889
O       2.00503      2.10398      5.03777         0.201344     -0.464586     -1.276630
O       1.97827     13.40298      4.88236         0.525890      0.162601      0.532459
O      13.35171      1.90343      5.07909         0.492630      0.113341     -1.547240
O      13.49748     13.35964      4.91279        -0.306996      0.260923     -0.047866
O       2.10115      1.87594      9.35327         0.007877     -0.082206      1.280407
O       1.99985     13.24846      9.36884         0.098456      0.491336      0.771909
O      13.76104      1.85005      9.27652        -0.577454     -0.143981      1.038257
O      13.60497     13.49284      9.37514         0.036435     -0.062651      0.169899
O       1.81742      5.69520      0.53480         0.176937      0.539227      0.995032
O       1.94115      5.70916     13.59236         0.405541      0.385100      1.656328
O      13.46103      5.89375      0.58552         0.141914      0.013719     -0.738853
O      13.70337      5.83043     13.65867        -0.305479     -0.478097      0.342610
O       1.98982      5.70707      4.89278        -0.082790      0.139537     -0.111278
O      13.38565      5.78423      5.00346         0.483356     -0.303827     -0.696146
O       1.95511      5.77036      9.24884         0.631926     -0.181274      1.595270
O      13.63650      5.61140      9.27982        -0.210109      0.461820      0.414802
O       1.89932      9.73451      0.64043         0.286722     -0.433940     -0.214103
O       2.28355      9.40696     13.75195        -0.649270      0.637129     -0.981772
O      13.46758      9.55253      0.61050         0.226359      0.380272      0.913012
O      13.67366      9.51150     13.53635        -0.321764      0.288000      2.208416
O       2.11411      9.31960      5.00045        -0.059567      0.442941     -1.426189
O      13.39192      9.59717      4.94521         0.079719      0.075024      0.003367
O       2.02357      9.57798      9.41377         0.188987      0.026242     -1.265030
O      13.55214      9.57199      9.24412         0.016937     -0.063405     -0.193354
O       5.67506      1.95892      0.63068         0.051215     -0.147195     -1.188588
O       6.01748      1.95520     13.72431        -0.088297     -0.155327     -1.622278
O       5.54029     13.44804      0.63993         0.752508     -0.028926      0.944594
O       5.95895     13.56636     13.67903         0.249924     -0.147667      0.379650
O       5.88782      2.09733      4.96957        -0.350520     -0.428298      0.716824
O       5.78614     13.36955      4.88846         0.702715     -0.014149      0.891188
O       5.87792      1.83524      9.42725        -0.016972     -0.114290     -0.781591
O       6.02650     13.27171      9.34714        -0.373064      0.599747     -0.740657
O       5.66964      5.76479      0.45371         0.078270     -0.130822      0.036422
O       6.15892      5.65405     13.69149        -0.526863      0.215181      0.598911
O       6.00486      5.70069      5.02225        -0.351253      0.247916     -0.060156
O       5.82581      5.72635      9.41008         0.049842      0.158451     -1.493787
O       5.65544      9.60621      0.62499         0.214891      0.044646     -1.197048
O       5.95980      9.77522     13.69812        -0.039802     -0.412161      0.452406
O       5.82056      9.32522      4.93285         0.066950      0.857261      0.871686
O       5.75076      9.70049      9.32596         0.566567     -0.405301     -0.556720
O       9.63407      1.97847      0.51560        -0.239568     -0.480112     -0.093445
O       9.93649      1.86997     13.75356        -0.153957      0.298250     -1.809704
O       9.55965     13.54032      0.65897         0.171997     -0.266648     -0.741005
O       9.77221     13.40329     13.60144        -0.267311      0.403971      0.945724
O       9.67240      1.78549      5.00478        -0.226018      0.339273      0.236713
O       9.50228     13.42244      4.90593         0.247021      0.056382     -0.111911
O       9.66082      1.89940      9.23564         0.264675     -0.060045     -0.446342
O       9.75264     13.46036      9.33188        -0.165262     -0.203625     -0.202994
O       9.64002      5.77879      0.48928         0.073914      0.219222     -0.326445
O       9.71103      5.74932     13.70876        -0.017703     -0.326317     -1.201621
O       9.61453      5.83902      5.04155        -0.088508     -0.067692     -0.815165
O       9.68651      5.63897      9.29012         0.386292      0.211242      0.468937
O       9.61809      9.59714      0.45790         0.047660      0.301016      0.835001
O       9.72224      9.71674     13.67051         0.246790     -0.563403      0.063405
O       9.70258      9.55496      4.89121        -0.133725      0.353216      0.993213
O       9.86761      9.66909      9.41900        -0.276240     -0.500910     -1.270897
O       3.92405      2.06264      2.83839        -1.310093     -1.003905     -0.192322
O       3.93720      1.99022     15.83975         0.772467     -0.374425     -0.318389
O       3.90364     13.46915      2.92715        -0.248530     -0.437578     -0.314071
O       4.03181     13.55858     15.86213        -0.103501     -0.604221     -0.372953
O      15.36323      1.83188      2.76891         0.246871      0.251410     -0.199296
O      15.50401      1.75901     15.94285         0.496745      0.652812     -0.153118
O       0.08044     13.42144      2.95557        -0.626620      0.449418     -0.747210
O       0.23898     13.42148     15.95139        -0.523368      0.024185     -0.556107
O       3.90114      1.91602      7.25628         1.681491     -0.118000     -0.700229
O       4.00856     13.33976      7.13873         0.052551      0.275317     -0.461987
O       0.11342      1.92727      7.12217         0.789240     -0.662764     -0.157422
O       0.12120     13.43315      6.94944         0.044112     -0.388947      0.631771
O       3.96191      1.88194     11.66080         0.534189      0.237202     -0.673382
O       4.00955     13.49095     11.60944        -0.101339      0.144304     -1.272196
O       0.17752      1.88930     11.53377        -0.200797     -0.019191     -0.138613
O       0.16659     13.41277     11.68820         0.066307      0.289050     -1.081002
O       3.84261      5.77823      2.54006        -0.251594     -0.494298      0.495461
O       3.96792      5.77536     15.83700         0.904275     -0.207026     -0.372404
O      15.34191      5.82466      2.74915         1.352181     -0.318289      0.106192
O      15.57008      5.73801     15.92087        -0.254854      0.732051     -0.290159
O       3.90740      5.72086      7.09899         1.058717      0.253570     -0.161254
O       0.19347      5.72759      7.13896        -1.058906     -0.171426     -0.554636
O       3.94749      5.81294     11.71488         0.254203     -0.953986     -1.614196
O      15.48184      5.67370     11.56855         0.075006      0.634160     -1.213599
O       3.92090      9.62116      2.84565        -0.219886     -0.736079     -0.166194
O       4.02520      9.69944     15.88890         0.301580     -0.370206      0.012066
O       0.16153      9.64826      2.87796        -1.082822     -0.166922     -0.259175
O      15.57386      9.64652     15.76147        -0.156725     -0.107314      0.338674
O       3.94915      9.44988      7.14531         0.575536      0.779904     -0.378559
O      15.38326      9.64646      7.02404         0.698329     -0.531743      0.095682
O       4.02381      9.46584     11.52702        -0.081148      0.253667     -0.228386
O      15.46355      9.58872     11.48512         1.615817     -0.152303     -0.315048
O       7.68747      1.97891      2.77750         0.224999     -0.468914     -0.398932
O       7.89349      1.84309     15.77169        -0.420495      0.459901      0.323928
O       7.67426     13.34878      2.77712         0.317702      0.194217     -0.082034
O       7.89545     13.50031     15.93062         0.028268     -0.223633     -0.321039
O       7.75385      1.90955      7.21654        -0.110735     -0.044109     -0.522594
O       7.80043     13.38453      7.20609         0.013957     -0.080908     -0.702567
O       7.88245      1.95614     11.34467        -0.113772     -0.401433      0.787317
O       7.82489     13.39277     11.50780         0.621974      0.541709     -0.101828
O       7.75566      5.70294      2.62688        -1.097005      0.068585      0.248595
O       7.86529      5.67597     15.95756         0.167117      0.451112     -0.718176
O       7.84055      5.72106      7.24763        -1.170631      0.010210     -0.279769
O       7.74444      5.82251     11.46847         3.285326     -0.954986     -0.078374
O       7.82210      9.58758      2.69939        -1.226148      0.435168      0.093649
O       7.83874      9.65397     15.83445         0.171710      0.066318      0.067060
O       7.75659      9.58914      7.10596         0.347620     -0.114609     -0.285546
O       7.84730      9.51515     11.43797        -0.570778      0.333773      0.024266
O      11.51573      1.96428      2.76955         0.134620     -0.469661     -0.455694
O      11.68246      1.82537     15.99321         1.611574      0.358809     -0.597535
O      11.61956     13.51269      2.82765        -1.846592     -0.675322     -0.371791
O      11.69291     13.47299     15.85667        -0.036536     -0.272626     -0.026833
O      11.67315      1.83601      7.19903        -1.249313      0.358305      0.079924
O      11.61977     13.47336      7.10854        -1.281540      0.039822     -0.414371
O      11.66160      1.82370     11.41018         0.872896      0.818334      0.157129
O      11.68492     13.40242     11.53826        -0.227784      0.268430     -0.121090
O      11.52884      5.75775      2.79423         0.461066      0.130659     -0.694070
O      11.70400      5.78029     15.89633         0.773302      0.033119     -0.824874
O      11.60622      5.55888      7.11883         0.101873      1.042460      0.297715
O      11.73815      5.71127     11.61097        -0.441362     -0.410536     -0.882987
O      11.58637      9.64839      2.68386        -0.180770     -0.129262      0.040276
O      11.74111      9.52070     15.74404         0.261226      0.328533      0.177713
O      11.61493      9.54988      7.22539        -0.814791     -0.535166     -0.463188
O      11.66012      9.58637     11.49019         1.174054     -0.051374      0.259869
O       1.86633      3.75048      2.77791         0.243242      1.533187     -0.212521
O       2.02810      3.90008     15.88635         0.195321     -0.934280     -0.396043
O       2.05964      0.00885      2.95680        -0.423172      0.475689     -0.746671
O       2.14035     15.34066     15.80166        -0.353574      0.655194      0.156145
O      13.53482      3.88238      2.72005        -0.296334     -0.502370     -0.029468
O      13.78203      3.82863     15.92354        -0.978482     -0.326338     -0.730419
O      13.43766     15.35235      2.75767         0.447892      0.816657     -0.040621
O      13.72853     15.18842     15.96728        -0.752541      1.697642     -0.476478
O       2.09884      3.81196      7.22104        -0.358155      0.302544     -0.614103
O       2.12511     15.32459      7.17515        -0.353646     -0.558337     -0.793765
O      13.63372      3.77312      7.20486        -0.468930      0.630650     -0.333583
O      13.53620     15.29006      7.10741         0.335342      0.165382      0.175527
O       2.10971      3.87626     11.53813        -0.052222     -0.816058     -0.483554
O       2.05360     15.33690     11.57072         0.045430     -0.019877     -0.336166
O      13.64941      3.74781     11.48040        -0.672727      0.651226     -0.135233
O      13.64579     15.35300     11.53977        -0.136337      0.195520      0.090905
O       1.95530      7.66207      2.78159         0.203309     -0.000079     -0.479240
O       2.22482      7.74579     15.80232        -0.713035     -1.002213      0.560343
O      13.57274      7.73760      2.77374        -0.405360      0.127008     -0.135183
O      13.72926      7.69675     15.82504        -0.086868     -0.702281      0.128764
O       2.10889      7.63608      7.23071        -0.868266      0.293443     -0.774468
O      13.62198      7.56589      7.10433        -0.961437      0.807542     -0.006789
O       2.04797      7.59537     11.59627         0.337797      0.473174     -0.948151
O      13.59643      7.69367     11.40479        -0.057882     -1.543587     -0.265673
O       1.99903     11.53725      2.92182         0.395846     -0.473621     -0.418871
O       2.07358     11.59883     15.81551         0.381666     -0.605880     -0.005432
O      13.46960     11.58239      2.89407         0.176901     -1.023820     -0.378707
O      13.64080     11.50301     15.90200        -0.128739     -0.420285     -0.276594
O       1.99277     11.42770      7.10058         0.571392      0.449076     -0.290394
O      13.37488     11.49701      7.07188         0.708225     -0.031744      0.108967
O       2.11703     11.46595     11.57200        -0.194487      0.038540     -0.615842
O      13.66805     11.49591     11.43005        -0.421011      0.383842      0.068730
O       5.78856      3.82758      2.76043         0.040748      1.001725     -0.144630
O       6.01366      3.80373     15.90597        -0.787351      0.018318     -0.499564
O       5.78474      0.00986      2.78918         0.057345     -0.210108     -0.104537
O       6.02003      0.02384     15.94458        -0.531819      0.294795     -0.207898
O       5.83908      3.84572      7.23771         0.150790     -0.392835     -0.251318
O       5.94507     15.32818      7.02798        -0.371565      0.066615      0.022561
O       5.90473      3.81214     11.47530         0.041389     -0.370569      0.505263
O       5.91897     15.33546     11.52922         0.325006      0.371848     -0.038067
O       5.81419      7.59289      2.73791         0.035771      0.364672     -0.013315
O       5.97063      7.70331     15.79875        -0.322434      0.170493     -0.152913
O       5.92918      7.60359      7.20268        -0.317184      0.708275     -0.578342
O       5.98205      7.59196     11.56903        -0.748285      1.442588     -0.203858
O       5.75497     11.40918      2.88688         0.638816      0.902953     -0.339518
O       5.98393     11.59944     15.91217        -0.155225      0.008935     -0.252841
O       5.88821     11.49687      7.08188         0.080966     -0.532753     -0.424810
O       5.88974     11.54793     11.42662         0.173522     -0.709751     -0.018666
O       9.60025      3.82596      2.70369         0.477881      0.076021     -0.020274
O       9.86029      3.81823     15.89762        -0.202315      0.238246     -0.655573
O       9.55972      0.07380      2.83250         0.173655     -1.126542     -0.857524
O       9.82114      0.01024     15.78643        -0.160664     -0.829171      0.537764
O       9.77558      3.78862      7.17920        -0.788030     -0.431147     -0.415035
O       9.68971     15.30885      7.22130        -0.339365      0.181759     -0.613231
O       9.74520      3.81340     11.54207         0.285020      0.188526     -0.273851
O       9.84887      0.02207     11.46978        -0.702536     -0.476550      0.037963
O       9.57294      7.65938      2.73293         0.581178      0.873401     -0.438795
O       9.70258      7.74724     15.84889         0.458369     -1.186756     -0.477977
O       9.70803      7.65667      7.24864         0.043578      0.835175     -0.440238
O       9.91221      7.62991     11.44211        -0.859495     -1.070831     -0.126455
O       9.69406     11.54409      2.81967        -0.182212      0.031699     -0.440814
O       9.84990     11.55321     15.78002        -0.232590     -0.131664      0.485782
O       9.79522     11.48877      7.21440        -0.767366      0.098768     -1.185858
O       9.80770     11.46380     11.49874        -0.306256      0.985112     -0.093108
