  # total energy = -7880.66498348 
CRSYTAL
PRIMVEC
    15.3600000000000000    0.2300000000000000    0.0000000000000000
     0.0000000000000000   15.3600000000000000    0.0000000000000000
     0.0000000000000000    0.0000000000000000    17.440000000000000
PRESSURE
2.06924 2.3368 -0.959963 0.050172 0.152786 -1.60081
PRIMCOORD
320 1
Pb       3.73956      3.84594      4.30671         0.422504      0.045962      1.299152
Pb       3.84946      3.91478     17.34852        -0.671781     -0.348050      0.100752
Pb       3.72212      0.08526      4.28318         0.556887     -0.247450      0.805718
Pb       3.77898     15.41350     17.21127        -0.127736     -0.307306      1.605849
Pb      15.28897      4.02384      4.36875        -0.138516      0.180274      0.326847
Pb      15.29644      4.08607     17.31585         0.212885     -0.413150     -0.118000
Pb      15.35708      0.30992      4.24726         0.282423     -0.827550      1.506013
Pb       0.02055     15.31579     17.32228        -0.542939      0.037423      0.428544
Pb       3.79060      4.03657      8.72289         0.236113     -0.428168      0.004080
Pb       3.74730     15.40973      8.71394        -0.249826      0.420205      0.350904
Pb      15.34203      4.07728      8.81966        -0.209298      0.051522     -0.126811
Pb      15.23483      0.31619      8.72388         0.682195     -0.400912      0.459257
Pb       3.85875      3.95727     13.06191         0.314582     -0.290863      0.118967
Pb       3.84941     15.40130     12.96937         0.547109      0.132889      0.865515
Pb      15.33478      4.05231     13.02952        -0.412137     -0.010107      0.548765
Pb      15.31412     15.50193     13.00482        -0.384960      0.704580      1.045737
Pb       3.84345      7.71268      4.22001        -0.112449      0.341846      1.613618
Pb       3.85037      7.66858      0.00522        -0.150089      0.082459      0.465372
Pb       0.01633      7.60613      4.23091        -0.509824      0.779464      1.437881
Pb       0.05880      7.51972     17.39732        -0.339338      0.362994     -0.036713
Pb       3.83432      7.83277      8.58971         0.260914     -0.165754      0.683285
Pb      15.32096      7.98295      8.54798        -0.529915     -0.197119      1.103826
Pb       3.90320      7.77364     13.06796         0.546393      0.331282      0.108799
Pb      15.31886      7.93434     13.02496        -0.273823      0.128871      0.262328
Pb       3.83765     11.56750      4.37896        -0.301167      0.298877     -0.100875
Pb       3.90291     11.50859     17.37176        -0.369884      0.305681      0.629606
Pb      15.34182     11.68506      4.30106        -0.007313      0.349779      0.410489
Pb       0.03004     11.45278     17.31626        -0.528138      0.364519      0.804766
Pb       3.77256     11.55436      8.65843         0.027129      0.549487      1.107046
Pb      15.27481     11.75155      8.61256         0.011759      0.299770      0.893548
Pb       3.93104     11.56694     13.05462         0.020255     -0.391728      0.661167
Pb      15.27979     11.77512     12.97561         0.036022     -1.387500      1.497574
Pb       7.63587      3.86021      4.32738         0.087934      0.071046      0.394513
Pb       7.63654      3.96238      0.01654         0.445315     -0.369183      0.082378
Pb       7.60926      0.17236      4.30672         0.038688     -0.429256      0.557817
Pb       7.61487     15.36588     17.37905         0.374221      0.554431      0.852534
Pb       7.78418      3.92093      8.70067        -0.706332      0.236195      0.809144
Pb       7.74432      0.19352      8.70417        -0.298466     -0.104978      0.402541
Pb       7.73218      3.92094     13.04042        -0.216387      0.242315      0.246602
Pb       7.69899     15.42317     13.04308        -0.065874      0.646124      0.342527
Pb       7.56211      7.77493      4.24579         0.274779     -0.384452      1.254102
Pb       7.70812      7.68992      0.02728        -0.517859      0.290648      0.819684
Pb       7.58702      7.85758      8.56950         0.417508     -0.138146      0.955197
Pb       7.65660      7.71482     13.03169        -0.132089      0.034949      0.755002
Pb       7.62446     11.64590      4.33191         0.405885     -0.125521      0.308663
Pb       7.67166     11.65954      0.00561         0.239036     -0.361633      0.666984
Pb       7.66505     11.64752      8.54773         0.061860      0.342941      1.212528
Pb       7.65546     11.49329     12.93281         0.237529      0.031856      1.413882
Pb      11.54605      3.91149      4.18043         0.219832      0.561630      0.655420
Pb      11.40947      3.90527     17.27697         0.327644      0.681824      1.299488
Pb      11.41928     15.51137      4.37473         0.442244      0.082679     -0.057451
Pb      11.48910     15.47622     17.29695         0.257257     -0.013932      1.764594
Pb      11.51867      4.01532      8.67389         0.573943      0.266254      0.924595
Pb      11.53414      0.18032      8.68234        -0.056487     -0.276186      1.058132
Pb      11.44994      3.84510     13.02874         0.108643      0.740199      0.466988
Pb      11.46252     15.43974     13.08489         0.174242      0.336064      0.297322
Pb      11.61996      7.71223      4.27659        -0.125035      0.286383      0.557172
Pb      11.51439      7.76450     17.42281         0.304329     -0.250217      0.569374
Pb      11.44673      7.89187      8.54982         0.421595     -0.110887      1.230403
Pb      11.41175      7.76995     13.06066        -0.087927      0.232699      0.285971
Pb      11.45563     11.83813      4.26758         0.454841     -0.608096      0.880472
Pb      11.52210     11.48607      0.06052         0.567502      0.715449      0.352375
Pb      11.50034     11.66121      8.69474         0.259352      0.318298      0.401794
Pb      11.50746     11.58335     13.07386        -0.257346     -0.452977      0.607502
Ti       1.95192      1.99315      2.42140         0.066697     -0.354761     -1.731525
Ti       1.89932      1.90244     15.31943        -0.717815      1.284988     -0.868298
Ti       1.94824     13.47278      2.33086        -0.466135      0.058733      0.526474
Ti       1.89281     13.45540     15.39409        -0.492520     -0.986603     -1.017148
Ti      13.49952      2.07966      2.26599        -0.556656      0.420702     -0.882633
Ti      13.40008      2.11635     15.39463        -0.226899     -0.294137     -0.189139
Ti      13.46997     13.65997      2.33564         0.406769      0.123815     -1.604878
Ti      13.33579     13.61669     15.44516         1.118682     -0.376303     -0.819537
Ti       1.92502      1.99490      6.74479        -0.056404     -0.883021     -0.721409
Ti       1.85385     13.40540      6.66422         0.557592      1.528487     -0.945359
Ti      13.46078      2.17078      6.77915        -0.018821      0.147435      0.451721
Ti      13.45879     13.68977      6.63649        -0.696768     -0.370028      1.244757
Ti       1.94264      2.02054     11.17094        -0.637102     -0.635497     -0.569323
Ti       1.93355     13.49457     11.24192        -0.249180     -0.877674     -1.957638
Ti      13.38359      2.10402     11.12452         0.898711     -0.362976     -1.097448
Ti      13.37526     13.58443     11.16486        -0.288812      0.251790     -1.771475
Ti       1.84766      5.80474      2.36119         1.498042     -0.051792     -1.664856
Ti       1.93041      5.85079     15.28757        -0.590212     -1.050297      2.008380
Ti      13.48484      5.96551      2.27561        -0.803968     -0.738106     -0.948542
Ti      13.40637      5.99065     15.36868         0.136818     -1.084123      0.527032
Ti       1.86458      5.82595      6.74608        -0.310246     -0.424866      0.837379
Ti      13.40701      5.98778      6.72243         0.493669     -0.305836     -0.622892
Ti       1.94038      5.82073     11.11471        -0.201626     -0.221027      0.137669
Ti      13.46055      5.98946     11.06298        -1.744199      0.035167     -0.122000
Ti       1.90554      9.68549      2.38754        -0.312014     -0.213511      0.758678
Ti       1.87691      9.64231     15.42199         0.424563     -0.086000     -1.486197
Ti      13.44037      9.86032      2.38231         0.170814     -0.684908     -1.215077
Ti      13.43679      9.77203     15.48529        -0.186678     -0.127256     -1.364781
Ti       1.84193      9.62942      6.69779        -0.026755      0.082469     -1.720220
Ti      13.37773      9.84913      6.60812        -0.072956     -0.451890     -1.895620
Ti       1.99336      9.62762     11.10704        -1.029745      0.341729     -1.517399
Ti      13.38769      9.73638     11.07563         0.174177      0.070817     -0.568196
Ti       5.78979      1.96785      2.30090        -0.738339     -0.289302     -0.000122
Ti       5.73477      1.90599     15.36505        -0.128358      0.861216     -0.339306
Ti       5.79286     13.52322      2.33911        -0.478787      0.021439     -0.869102
Ti       5.79176     13.49216     15.47205        -0.250982     -0.962106     -1.166602
Ti       5.79198      2.05190      6.75332        -0.761768     -0.336489     -0.137684
Ti       5.66665     13.59427      6.78159         0.511934      0.890016     -0.515961
Ti       5.76676      2.05093     11.10936         0.318343     -0.302281     -1.176424
Ti       5.79652     13.51701     11.05844        -0.044429      0.157166     -0.455167
Ti       5.65991      5.71110      2.39340         0.754175      1.193524     -0.748938
Ti       5.75793      5.79688     15.46767         0.011435      0.168634     -0.830348
Ti       5.75701      5.84288      6.64326        -0.267356      0.049781      0.650576
Ti       5.74930      5.81299     10.89268         0.626030      0.413914     -0.158750
Ti       5.73654      9.69325      2.41144        -0.052624     -0.581173     -1.123444
Ti       5.75589      9.65791     15.59234         0.834400     -0.777466     -2.236590
Ti       5.70515      9.75668      6.67300         0.427486     -0.700696     -0.113372
Ti       5.82856      9.65879     10.93781         0.497281     -0.122629     -0.398270
Ti       9.62428      2.05006      2.28910         0.152596     -0.135219     -2.114107
Ti       9.51841      1.94799     15.46142         0.656049      0.914760     -1.174038
Ti       9.61032     13.56675      2.33368         0.117976      0.287167     -0.428278
Ti       9.67109     13.47027     15.48259        -1.068310      0.082489      1.780761
Ti       9.62798      2.20630      6.69979         0.525755     -1.618492      0.567524
Ti       9.58896     13.61646      6.78210         0.331490      0.355565     -1.004270
Ti       9.60002      2.05449     11.03177        -0.507596     -0.105508     -0.393698
Ti       9.56918     13.52955     11.15888         0.493259      0.321151     -2.185600
Ti       9.55024      5.88527      2.40512         0.328515     -1.010751     -0.799589
Ti       9.54633      5.88933     15.44514         0.054457     -0.321570     -0.328302
Ti       9.54539      5.90037      6.67176         0.753860      0.884219     -0.785521
Ti       9.58679      5.88443     10.96719         0.162322      0.187340      1.716080
Ti       9.66337      9.68235      2.41581        -0.817285      0.087427      0.151869
Ti       9.62109      9.68683     15.66980        -0.776728     -0.237236     -3.002297
Ti       9.56388      9.73979      6.64549         0.403196     -0.105855      1.041395
Ti       9.59447      9.70268     11.00202         0.444672     -0.572976     -1.729006
O       1.93710      1.90520      0.62401         0.015939      0.303641      0.911685
O       1.89215      1.86174     13.54300         0.322115      0.423766      1.087447
O       1.86362     13.58910      0.58725         0.172117     -0.423439     -0.030957
O       1.86183     13.42502     13.59748         0.235458     -0.089383      0.757006
O      13.63230      2.16108      0.48309        -0.430081     -0.465163      1.152672
O      13.21640      1.95158     13.63502         0.272168      0.471827      0.575052
O      13.44894     13.67679      0.51332         0.230149     -0.039289      1.860654
O      13.31405     13.64215     13.61235         0.079084     -0.476291      1.264336
O       1.99061      2.01578      4.88655        -0.278738     -0.121608      1.530027
O       1.96422     13.43085      4.84460        -0.003498     -0.026504      1.450868
O      13.45675      2.12362      5.03123        -0.098316      0.239220     -0.512629
O      13.36039     13.62197      4.88859         0.003577      0.230512      0.401750
O       1.84017      1.85511      9.41123         0.011165      0.373586      0.332491
O       1.75860     13.40462      9.43854         0.505082      0.231558      1.855724
O      13.53743      2.12006      9.29177        -0.353730      0.149655      1.631945
O      13.50053     13.58302      9.32978        -0.173694     -0.148862      2.040821
O       2.02141      5.90443      0.52186        -0.698931     -0.394772      1.841766
O       1.98843      5.73151     13.57782        -0.090938      0.482601     -1.067297
O      13.60333      5.92407      0.48385        -0.250764      0.301572      1.076062
O      13.47280      5.84852     13.64741        -0.269040      0.590725     -0.324343
O       1.75875      5.76424      5.04335         0.109131     -0.034111     -0.859914
O      13.54313      5.89005      4.92185        -0.382020      0.044466      0.358582
O       1.88637      5.83294      9.38302         0.073426      0.108185     -0.425046
O      13.46823      6.14330      9.30715        -0.046281     -0.440086      0.293216
O       1.88527      9.70584      0.66877         0.189178     -0.295404     -0.899891
O       2.15802      9.61751     13.65130        -0.584558     -0.250309      0.340853
O      13.46009      9.74643      0.55530        -0.130808      0.072997      1.284894
O      13.27771      9.87021     13.67987         0.441229     -0.516616      1.146541
O       1.80362      9.50493      4.88160         0.444347      0.802672      1.582780
O      13.36891      9.75848      4.77552         0.074748      0.403197      1.300205
O       1.84498      9.69770      9.24551         0.526062     -0.208082      1.855069
O      13.35805      9.79529      9.30055         0.338812     -0.077216      0.186910
O       5.66525      1.92556      0.54426         0.110087      0.117699      0.514856
O       5.67025      2.01324     13.59291         0.244011     -0.275288      0.957346
O       5.79283     13.50217      0.53856        -0.147785      0.001261      1.088400
O       5.75995     13.41236     13.70086         0.206073      0.302031      0.531947
O       5.83223      1.98417      4.97019        -0.124365      0.102932      0.528682
O       5.84116     13.60210      5.01315        -0.350055     -0.046441      0.367901
O       5.88776      1.99494      9.32895        -0.314196      0.366165      0.544736
O       5.78012     13.52233      9.29837         0.040567      0.131780      0.335230
O       5.75478      5.91148      0.56401        -0.442962     -1.015683      1.462043
O       5.72553      5.90313     13.67176        -0.158773     -0.292664      1.474664
O       5.78932      5.86401      4.87360        -0.250246     -0.318066      0.957004
O       5.70856      5.94084      9.07051         0.118820     -0.502718      2.051093
O       5.66884      9.74581      0.59545         0.126702     -0.122731      0.749812
O       5.81973      9.47597     13.68687        -0.350383      0.690893      2.555529
O       5.76831      9.55789      4.91188        -0.334878      0.932172      0.475353
O       5.84050      9.67939      9.13510        -0.351313      0.282470      1.025291
O       9.55457      2.01301      0.43978        -0.077449      0.215855      1.870592
O       9.64661      2.02297     13.60867        -0.307726     -0.036112      1.958357
O       9.63536     13.58558      0.56069        -0.371852     -0.067813      1.260212
O       9.56525     13.50933     13.79995         0.006423      0.043835     -1.797165
O       9.60907      2.18774      4.94561         0.262965     -0.403356      0.263274
O       9.63387     13.59792      4.92227         0.102542      0.182195      1.522538
O       9.56457      2.22658      9.21166         0.018941     -0.580283      1.274632
O       9.59783     13.57287      9.35378        -0.196045     -0.025961      1.025846
O       9.51919      5.78369      0.58858        -0.301697      0.327891      1.561344
O       9.45212      5.94016     13.68050         0.389954     -0.326974      0.779656
O       9.61535      5.95204      4.87452        -0.069948     -0.530494      1.235335
O       9.64291      5.86381      9.24012        -0.258233      0.136692     -0.343001
O       9.64624      9.63639      0.65014         0.041198      0.180703      0.160207
O       9.57467      9.59931     13.84146         0.145316      0.399280      1.168963
O       9.61047      9.69112      4.92322        -0.109090      0.158058     -0.152268
O       9.60716      9.61803      9.15552        -0.055913      0.448988      1.948883
O       3.86259      1.97377      2.88745        -0.305532     -0.063373     -0.716817
O       3.81036      1.86636     15.81174        -0.029649      0.366304     -0.568456
O       3.94027     13.38268      2.76829        -0.936020      0.435904     -0.165453
O       3.76730     13.39036     15.76040         0.499143      0.188109      0.092099
O       0.00438      1.87186      2.86873        -0.021669      0.783909     -0.797956
O      15.25643      2.15100     15.69477         1.216358     -0.448747     -0.002057
O       0.03070     13.41171      2.80219         0.094676      0.263045     -0.468905
O      15.25088     13.69089     15.83473         0.920543     -0.525908     -0.370902
O       3.74886      1.93826      7.29366         0.212389      0.549717     -0.652201
O       3.71645     13.56723      7.22192         0.968884      0.004683     -0.447785
O      15.32391      2.16383      7.18237         0.733292      0.235016     -0.245871
O      15.35602     13.61957      7.10681        -0.605770      0.117120     -0.498829
O       3.84657      2.05964     11.47327        -0.488476     -0.296369      0.015116
O       3.88935     13.31450     11.54153        -0.707253      1.032180     -0.551100
O      15.27912      2.11473     11.60604         0.342084     -0.237526     -0.450174
O      15.29333     13.54944     11.68923         0.258834      0.917266     -1.507936
O       3.81342      5.84072      2.88267        -0.231205     -0.526233     -0.847749
O       3.77229      5.81467     15.89690         0.746202      0.188568     -0.638165
O       0.02737      5.76937      2.75050        -0.603951     -0.440938     -0.420534
O       0.01132      5.67438     15.80819         0.308548      0.786175     -0.366391
O       3.82862      6.00578      7.17296        -0.085701     -0.943105     -0.820578
O      15.28516      6.00555      7.25863         1.199389      0.061226     -0.396807
O       3.87339      5.62632     11.40575        -0.227861      1.020626     -0.322316
O      15.23557      5.91195     11.47532         2.179169      0.384737      0.268189
O       3.77062      9.66771      2.83327         0.962034      0.047739     -0.199193
O       3.77803      9.69227     15.92704         1.419794     -0.271080     -0.245345
O      15.35348      9.88056      2.70825        -0.384382     -0.403478      0.150969
O      15.34647      9.85598     15.73920        -0.150343     -0.450235      0.122362
O       3.80686      9.78971      7.15169         0.274160     -0.978486     -0.765836
O      15.27866      9.98371      6.88261         1.162095     -0.421932      0.688903
O       4.04320      9.68393     11.51464        -1.867891     -0.219428     -0.619667
O      15.31774      9.71097     11.49769         0.854273      0.616518     -0.176539
O       7.69442      2.04159      2.71086        -0.415489      0.096050     -0.109035
O       7.62312      1.90743     15.81681         0.010269      0.132024     -0.338271
O       7.68368     13.50620      2.80162         0.272080      0.505825     -0.339394
O       7.64351     13.57531     15.98037         1.185553     -0.502138     -0.781875
O       7.70372      2.17728      7.12186         0.546304     -0.438449     -0.436977
O       7.64482     13.71593      7.24212         0.452569     -0.696943     -0.801345
O       7.68634      2.05398     11.50462         0.224671     -0.421647     -0.044001
O       7.72009     13.64890     11.66021        -0.860304     -0.865921     -0.854210
O       7.58755      5.67934      2.92698         0.464080      0.686551     -1.430257
O       7.63785      5.68097     15.90141        -0.461735      0.925605     -0.260543
O       7.69401      5.83643      7.19605        -0.323319     -0.190064     -1.153945
O       7.63937      5.72405     11.56148        -0.291491      0.608033     -1.295464
O       7.62105      9.60832      2.88468         0.621323      0.811550     -0.910279
O       7.74372      9.73297     16.03603        -1.436876     -0.226894     -0.033638
O       7.66118      9.81080      7.10482        -0.002043      0.006225     -0.807389
O       7.75951      9.71405     11.41154        -1.269518     -0.392871     -0.143598
O      11.54323      2.17491      2.65284         0.565823     -1.115439     -0.108595
O      11.46857      2.04880     15.99383         0.195766      0.095410     -1.397055
O      11.55473     13.64455      2.68227        -0.727169     -0.054819      0.309342
O      11.51155     13.46403     15.96848        -0.163754      0.246885     -0.552488
O      11.59287      2.11976      7.30671        -1.288234      0.382923     -1.146983
O      11.57838     13.60948      7.31771        -0.442685      0.049255     -1.227823
O      11.45992      2.05872     11.53934         0.099980     -0.063498     -0.729006
O      11.43728     13.47280     11.64972         0.346278      0.648389     -0.741520
O      11.54194      5.89201      2.68907        -0.133083      0.088011     -0.122888
O      11.44177      5.96017     15.95382         0.223281     -0.174925     -1.043311
O      11.53907      5.93446      7.14711        -0.604855      0.137955     -0.634818
O      11.47607      5.98412     11.51460        -0.257340     -0.563357     -0.524959
O      11.49508      9.78904      2.80478         0.221281     -0.333291     -0.454509
O      11.53639      9.61537     15.96804        -0.280787      0.226003      0.077262
O      11.51500      9.72036      7.08632        -0.477765      0.448962     -0.472264
O      11.47397      9.63539     11.45538        -0.517676      0.125545      0.053878
O       1.96087      3.91549      2.85865        -0.546000     -0.107230     -0.738030
O       1.89879      3.83979     15.68716         0.421336     -0.301803      0.138277
O       1.91853      0.09385      2.76089         0.299662     -1.144572     -0.053322
O       1.82176     15.35097     15.72158         0.365815      0.118958      0.115211
O      13.44044      4.00087      2.63857         0.678362      0.138047      0.306857
O      13.44250      4.05307     15.72240        -0.589061     -0.667262      0.234114
O      13.50544     15.52463      2.92537        -0.711551      0.771226     -1.184008
O      13.31393     15.46708     15.84127         0.205800      0.838474     -0.455992
O       1.86175      3.90029      7.19809         0.321517      0.024140     -0.132133
O       1.81456      0.04267      7.19311         0.204098     -0.062413     -0.568592
O      13.48827      4.10634      7.28495        -0.226003     -0.422851     -0.637073
O      13.32894      0.24844      7.27596         1.060020     -0.856354     -1.374804
O       1.83678      3.89052     11.48735         0.110199      0.039864     -0.015988
O       1.96326      0.05897     11.67376        -0.337245     -1.276155     -1.272313
O      13.38707      3.94226     11.58403        -0.241316      0.729548     -0.602850
O      13.35625     15.49249     11.50976         0.025784     -0.173360     -0.291181
O       1.92185      7.63703      2.89906        -0.192269      0.529930     -1.196776
O       1.83518      7.75408     15.79029         0.446568     -0.859867     -0.169598
O      13.43244      7.84735      2.71348         0.062429     -0.001902     -0.310565
O      13.42381      7.80616     15.79311         0.333139      0.814706      0.201781
O       1.89676      7.74047      7.11944        -0.257418      0.673879     -0.093528
O      13.51967      7.91420      6.95326        -0.399898      0.381182      0.227790
O       1.94210      7.69741     11.54404         0.262003      0.234226     -0.211838
O      13.44017      7.86717     11.56194        -0.102256     -0.276545     -0.016366
O       1.90722     11.56121      2.83512         0.282665      0.142456     -0.395070
O       1.85911     11.50578     15.84098         0.080349      1.003086     -0.055448
O      13.45188     11.74403      2.74624        -0.251299     -0.018797     -0.236082
O      13.41606     11.61438     15.95305        -0.423085      0.796401     -0.421675
O       2.02049     11.56823      7.13824        -0.908218     -0.187268     -0.586157
O      13.39896     11.73126      7.11461        -0.271957      0.244574     -0.505101
O       1.90080     11.44821     11.59911         0.211131      0.264672     -0.426798
O      13.27290     11.62732     11.55664         0.851399      0.448087     -0.481219
O       5.58632      3.85827      2.82221         0.809345      0.054862     -0.724841
O       5.71806      3.86476     15.87918        -0.263263     -0.219230     -0.426843
O       5.71762      0.10192      2.78907         0.451778     -0.578231     -0.327397
O       5.74117     15.33007     15.85701        -0.210506      1.384639     -0.460887
O       5.62483      3.92850      7.16990         0.221628      0.830267     -0.585091
O       5.72931      0.22138      7.17090         0.059554     -1.103117      0.084739
O       5.74550      3.91085     11.49886         0.193345      0.572526     -0.315436
O       5.69610      0.08909     11.44527         0.194116     -0.522173      0.200432
O       5.69926      7.73880      2.79881         0.131383     -0.273067     -0.676041
O       5.78296      7.71912     16.05078        -0.082934      0.310692     -1.014507
O       5.83728      7.85481      7.08631        -0.635944     -0.473636     -0.622324
O       5.81969      7.73946     11.32458        -0.221585     -0.463060     -0.193987
O       5.82167     11.55589      2.78028        -0.228360      0.639479      0.129846
O       5.95380     11.57448     15.88941        -1.399357     -0.404055     -0.204115
O       5.66839     11.72984      7.05798         0.401537     -0.953711     -0.086635
O       5.87574     11.60257     11.44802        -0.014379     -0.350070     -0.366486
O       9.65741      3.88652      2.78977        -0.717120      1.010264     -0.232142
O       9.53905      3.96771     15.90527        -0.008024     -0.758000     -0.647782
O       9.66549      0.20084      2.82336        -0.451147     -0.821970     -0.360183
O       9.66016     15.45169     15.89038        -0.473467     -0.283283     -0.744269
O       9.70087      4.01340      7.17563        -0.389641      0.343987     -0.698443
O       9.72069     15.49267      7.19312        -0.628845      0.980342     -0.689588
O       9.53848      3.96188     11.47661         0.541047     -0.018351     -0.246906
O       9.58953     15.49608     11.51790        -0.056249      0.005871     -0.286528
O       9.54332      7.73992      2.79161         0.206053      0.337800     -0.475742
O       9.37428      7.76755     15.93549         1.147193     -0.650587     -0.105060
O       9.56275      7.80948      7.16838        -0.219703     -0.012447     -1.107863
O       9.46219      7.75597     11.64663         0.751806      0.278089     -1.566247
O       9.61216     11.63579      2.87269        -0.474505      0.323423     -0.918495
O       9.67049     11.60517     15.99837        -0.385344      0.145736     -0.255718
O       9.64024     11.73687      7.19257        -0.309685     -0.689793     -0.809307
O       9.54213     11.60413     11.43491         0.168320     -0.243847      0.025271
