  # total energy = -7882.21839858 
CRSYTAL
PRIMVEC
    15.3600000000000000    0.0000000000000000    0.0000000000000000
     0.0000000000000000   15.3600000000000000    0.0000000000000000
     0.2400000000000000    0.0000000000000000    17.440000000000000
PRESSURE
1.19131 1.42903 1.8286 0.02155 -0.606738 0.008277
PRIMCOORD
320 1
Pb       3.87304      3.85388      4.29464         0.522942     -0.057381      0.020851
Pb       4.01531      3.81460     17.38367        -0.152376     -0.314556     -0.321882
Pb       3.78884     15.26911      4.29863         0.850250      0.214193     -0.378708
Pb       4.16013     15.32637     17.38574        -0.466022      0.467724      0.551667
Pb       0.06476      3.79801      4.29951        -0.040891      0.430254      0.064210
Pb      15.49513      3.81175     17.37827        -0.133080      0.289295      0.781734
Pb      15.34300     15.18777      4.25921         0.143164      0.668285      0.170121
Pb      15.57303      0.03239     17.34273        -0.007746      0.033420      0.490641
Pb       3.90681      3.83344      8.61881        -0.567181      0.241844      0.055776
Pb       3.86789     15.35720      8.71100         0.209511      0.003063     -0.092295
Pb      15.44028      3.90274      8.68871         0.457740     -0.648225      0.272093
Pb       0.15604      0.01527      8.69149        -0.405644      0.251082      0.095962
Pb       3.95915      3.79806     13.05313        -0.025668      0.664074     -0.289065
Pb       4.01182     15.29324     13.04219        -0.377741     -0.278308     -0.358076
Pb      15.52663      3.66524     13.15130        -0.334201      0.445380     -0.743192
Pb      15.48519     15.23083     13.05242        -0.280952     -0.128716     -0.378361
Pb       3.85958      7.61381      4.25833         0.148766     -0.040436      0.450117
Pb       4.18336      7.58178     17.43001        -0.563064      0.328564     -0.218924
Pb      15.34293      7.69403      4.33458         0.456206     -0.120227     -0.264011
Pb       0.24923      7.59258     17.30252         0.351475     -0.053808     -0.184419
Pb       3.91387      7.77493      8.67773        -0.043133     -0.417418     -0.023452
Pb       0.21459      7.70987      8.78303        -0.091077     -0.214430     -0.375596
Pb       4.05173      7.70760     12.95993        -0.319435     -0.477624      0.748270
Pb      15.43730      7.69889     13.16632         0.378082      0.108448     -0.289953
Pb       3.75922     11.53269      4.22963         0.639254     -0.585931      0.084381
Pb       3.92224     11.43868      0.09606        -0.122299      0.264946     -0.355994
Pb      15.40031     11.46910      4.16428         0.037582     -0.580025     -0.006478
Pb      15.57652     11.44878     17.37611         0.108573     -0.036676     -0.184992
Pb       3.90445     11.52605      8.65716         0.005593     -0.455122      0.005662
Pb       0.17662     11.45920      8.65066        -0.060402     -0.157814      0.182218
Pb       3.89519     11.42202     13.18260         0.391918      0.207750     -0.026822
Pb      15.37182     11.47230     13.09352        -0.050555     -0.068050      0.050647
Pb       7.68280      3.71430      4.43301        -0.166457      0.558009     -0.191251
Pb       7.67807      3.90796      0.02979         0.371011     -0.888601     -0.517089
Pb       7.70272     15.35166      4.37442         0.177977     -0.086936      0.078745
Pb       7.98135      0.03345     17.36694        -0.065179      0.250397      0.373824
Pb       7.74377      3.83951      8.58192         0.541653      0.150257      0.439486
Pb       7.85193     15.21994      8.57829        -0.477062      0.194916     -0.442275
Pb       7.71452      3.83228     12.90882         0.872186      0.511286      0.299989
Pb       7.65830      0.13117     12.90488         0.537769     -1.070552      0.186714
Pb       7.78155      7.65560      4.32747        -0.122005      0.166467      0.061836
Pb       7.70603      7.64708      0.02190         0.412753      0.543305      0.400687
Pb       7.78762      7.64099      8.72318         0.322707     -0.061373     -0.183010
Pb       7.83406      7.75674     13.01360         0.326259     -0.371440      0.025638
Pb       7.83751     11.42576      4.24529        -0.217416     -0.061007      0.580105
Pb       7.59371     11.60019      0.04138         0.203705      0.090148      0.786281
Pb       7.67514     11.49369      8.63067         0.591438      0.014007     -0.166786
Pb       7.80699     11.58048     13.05311        -0.301757      0.074014     -0.510261
Pb      11.61239      3.77670      4.45571        -0.517282      0.676516     -0.298333
Pb      11.55248      3.84464     17.35677         0.485715      0.109474     -0.120789
Pb      11.61422     15.35774      4.43224        -0.463590     -0.065130     -0.311299
Pb      11.78292      0.14687     17.32229        -0.206866     -0.410191     -0.065430
Pb      11.71526      3.89098      8.68781        -0.108115     -0.408648      0.312164
Pb      11.60172     15.31972      8.67156         0.249458      0.214703     -0.350754
Pb      11.58113      3.89125     13.03899         0.090827     -0.426732      0.119859
Pb      11.54128     15.14522     13.07231         0.463613      0.529331     -0.586910
Pb      11.61974      7.61002      4.50208        -0.426816     -0.057491     -0.840031
Pb      11.72586      7.61419     17.33352        -0.255285     -0.080891      0.415957
Pb      11.68367      7.69063      8.65404         0.029951     -0.173200      0.293699
Pb      11.72785      7.66387     13.10792        -0.399909      0.059572     -0.480350
Pb      11.63376     11.48740      4.18825        -0.555617     -0.329696      0.439750
Pb      11.57558     11.58072     17.40696         0.835978     -0.074188      0.750861
Pb      11.65595     11.60777      8.61335        -0.279976     -0.270481     -0.019819
Pb      11.56551     11.50786     13.03773         0.099271     -0.142853     -0.352217
Ti       1.90894      1.87724      2.37007        -0.368003      0.715568     -1.190146
Ti       2.03600      1.89799     15.27585         1.227266      0.262961      2.255239
Ti       1.99770     13.46531      2.29781        -0.408387     -0.847294     -0.618708
Ti       2.11412     13.50401     15.44271         0.306946     -1.207549      0.284458
Ti      13.43079      1.96282      2.35541         0.381483     -0.409056      0.107979
Ti      13.64348      1.93319     15.26944        -1.097766      0.648459      0.248670
Ti      13.43679     13.42408      2.33815         0.173262      0.024415     -1.554817
Ti      13.63152     13.39868     15.44909        -0.173209      0.057452      0.086876
Ti       2.07247      1.83061      6.53196        -0.705061      0.792484      2.519695
Ti       2.02673     13.39980      6.58613        -0.560339     -0.651178      0.180491
Ti      13.60658      1.81651      6.68972         0.114947      0.394815      1.549383
Ti      13.63678     13.33937      6.60572        -1.253736      0.945166      2.581265
Ti       2.03414      1.84265     11.06047        -0.418604     -0.359203      0.044095
Ti       1.99564     13.28910     11.11728         0.847170      0.545972     -1.007749
Ti      13.49407      1.88604     11.16360         0.851820     -0.180104     -0.395359
Ti      13.48664     13.36814     10.93070         0.141799     -0.152599      0.973755
Ti       1.99028      5.68125      2.26248        -1.003501      0.598755     -0.510687
Ti       2.13808      5.71086     15.39964         0.047699      1.538209     -0.441870
Ti      13.43655      5.70253      2.36816        -0.551072      0.244049      1.025281
Ti      13.57586      5.72323     15.32590         0.327595     -0.506056      0.448864
Ti       1.99419      5.73667      6.66207         0.536400      0.431603      0.691642
Ti      13.57303      5.70741      6.68071         0.274524      0.591214      1.239755
Ti       2.07573      5.68838     11.09819         0.097828      1.165640     -1.386966
Ti      13.64779      5.74693     11.05282        -0.871861      0.037643     -0.573277
Ti       1.96553      9.52004      2.23973        -0.206898     -0.178033     -0.351035
Ti       2.26120      9.57233     15.45651        -1.257311     -0.347894     -0.987106
Ti      13.46529      9.47140      2.13535         0.070547      0.116390      2.345714
Ti      13.61443      9.57504     15.48115         0.103008      0.060804      0.225508
Ti       2.06353      9.55951      6.58562        -0.202630     -0.633070      0.327634
Ti      13.54512      9.59136      6.68337         0.820676     -0.271952      0.342387
Ti       2.07937      9.56131     11.18133        -0.215066     -0.658519      0.819582
Ti      13.52402      9.53672     11.05717         0.367083      0.791547      0.420855
Ti       5.73914      1.88987      2.26688         0.637623      0.189161      2.171536
Ti       5.94552      1.97068     15.30862         0.333933      0.333143      2.496203
Ti       5.92829     13.42125      2.43155        -0.906738      0.095907     -0.445574
Ti       5.95517     13.54291     15.48630         0.136375     -0.752605      0.194997
Ti       5.84396      1.87335      6.69462        -0.110331      0.182422      0.452133
Ti       5.72878     13.40309      6.58777         2.706711      0.049483     -0.470763
Ti       5.86535      1.94138     10.87193        -0.506276     -0.643823      1.831135
Ti       5.80933     13.39005     10.94440         0.277056     -0.359189      1.052539
Ti       5.85591      5.72096      2.23272        -0.308245     -0.153769      3.640802
Ti       6.03109      5.75662     15.48065         0.020893      0.419961     -0.866614
Ti       5.84551      5.76453      6.83146         0.086471      0.163953     -0.267707
Ti       5.98535      5.75274     10.98178        -0.424408      0.532418      1.556995
Ti       5.78355      9.54079      2.38589         0.795592      0.409066     -0.182707
Ti       5.98306      9.60323     15.47945         0.798338      0.402587     -0.044941
Ti       5.97888      9.52895      6.67617        -0.713336      0.186163     -1.462803
Ti       5.98190      9.55387     11.01874        -0.755862      0.918095      0.190936
Ti       9.64079      1.98915      2.47601        -0.384444     -0.437791      1.354003
Ti       9.78041      1.91745     15.24331        -0.312989      0.979340      0.932856
Ti       9.68694     13.50251      2.41516        -0.806140     -0.358700     -0.114595
Ti       9.77328     13.43096     15.39519        -0.006366      0.522877      0.952717
Ti       9.75298      1.99199      6.76042        -0.347657     -0.564374      0.833597
Ti       9.72652     13.42262      6.62697        -0.930496      0.014659     -0.825278
Ti       9.73014      1.89992     10.94628         0.553779      0.218557     -0.185322
Ti       9.63074     13.43058     10.89257        -0.483496     -0.309124      0.761076
Ti       9.59920      5.77848      2.32662         1.374790      0.476841      1.106992
Ti       9.78738      5.80890     15.30543        -0.128151     -1.437873      0.052914
Ti       9.82328      5.78972      6.74920        -1.666186     -0.398136      0.638859
Ti       9.82563      5.69672     10.98421        -0.535045      1.013781     -0.362611
Ti       9.69206      9.56425      2.29150        -0.939563     -0.313491      0.976447
Ti       9.72640      9.63867     15.44003         0.450425     -0.354910      0.472863
Ti       9.77757      9.63288      6.66425        -0.498679     -0.149941     -0.982719
Ti       9.73044      9.55933     10.98437         0.346762      0.029889      1.638479
O       1.69313      2.04015      0.60047         0.920373     -0.573549      0.601628
O       2.04420      1.80316     13.55349        -0.027602      0.263577      0.225618
O       1.91825     13.57569      0.55424         0.189381     -0.377456     -0.470351
O       2.06856     13.46327     13.69955         0.159860     -0.048784     -0.553870
O      13.46201      1.80714      0.59402        -0.390103      0.292260      0.073654
O      13.59828      1.98052     13.51057         0.463730     -0.147780      0.192992
O      13.31588     13.39409      0.56074         0.483269      0.508707      0.400581
O      13.57278     13.44869     13.71655        -0.063187     -0.258083     -0.831641
O       1.98319      1.85333      4.83097         0.010598      0.051176     -1.352488
O       1.94029     13.30317      4.79288         0.257971      0.262546      0.893025
O      13.58122      1.83188      4.97551        -0.063270      0.143215     -1.110044
O      13.55111     13.41606      4.89278         0.192885     -0.073948     -1.725611
O       2.01444      1.74051      9.27712         0.106809      0.237808      0.648987
O       2.19030     13.16938      9.30809        -0.517124      0.482973      0.880224
O      13.68722      1.81568      9.38950        -0.232112      0.053566      0.373442
O      13.54379     13.26873      9.18393        -0.144228      0.508260      0.578725
O       1.95782      5.68235      0.44926         0.144670     -0.014287      0.916129
O       2.17550      5.66379     13.64628        -0.568397      0.143382     -0.275274
O      13.20061      5.64663      0.67741         0.387705      0.244677     -1.591868
O      13.55571      5.75420     13.57897         0.275765     -0.000849     -0.578284
O       2.00180      5.85737      4.91358         0.012591     -0.597129      0.008901
O      13.56794      5.63592      4.95736        -0.127416      0.183384     -0.501833
O       2.10936      5.85438      9.25857        -0.226751     -0.528962      1.346926
O      13.51127      5.92997      9.24769         0.276174     -0.672749      0.815850
O       1.89882      9.55510      0.44431         0.309990     -0.071552      0.448423
O       2.29265      9.49976     13.63443        -0.360795      0.316157      0.612452
O      13.49604      9.52095      0.41453         0.187853     -0.085295     -0.692513
O      13.60092      9.43905     13.73669        -0.196184      0.539707     -0.375283
O       1.96470      9.48651      4.86600        -0.096637      0.327664     -1.170060
O      13.61398      9.58381      4.94801        -0.184445      0.263411     -0.600483
O       1.96972      9.59211      9.43495         0.175013      0.093943     -0.510766
O      13.55953      9.54863      9.31184         0.066816      0.120817     -0.541349
O       5.78043      2.13178      0.58023        -0.089285     -0.583025     -1.225810
O       6.03356      1.99167     13.59037        -0.290925     -0.305278     -0.949592
O       5.82374     13.48712      0.64864        -0.152011      0.220831     -0.297013
O       6.03936     13.55073     13.76913        -0.274246     -0.074033     -0.660485
O       5.79541      2.15575      4.96960         0.071579     -0.660217     -0.120699
O       5.77486     13.40426      4.80938        -0.414529     -0.027158      0.674260
O       5.78122      1.70471      9.18460        -0.153609      0.566544     -0.410236
O       5.70792     13.52336      9.21014         0.355072     -0.493621     -0.553094
O       5.88601      5.73042      0.55672        -0.517917      0.030324     -2.724801
O       6.05375      5.79360     13.72357         0.352087     -0.147459     -0.057887
O       5.85119      5.74676      5.10127        -0.062821     -0.172261     -0.690605
O       5.83350      5.83780      9.29897        -0.040021     -0.193330     -1.533610
O       5.66760      9.64969      0.60736         0.012179     -0.330863      0.114210
O       6.17504      9.57910     13.69517        -0.310723     -0.007113      0.751701
O       5.99208      9.47129      4.86694        -0.202109      0.053864      1.161178
O       6.01167      9.54519      9.26973        -0.238557      0.085486     -0.510981
O       9.68961      2.05620      0.79110         0.057679     -0.528385     -2.087850
O       9.73925      2.12770     13.53105        -0.434014     -0.787037     -0.934493
O       9.64565     13.42957      0.65405         0.008965      0.325449     -0.435873
O       9.78105     13.50873     13.65367        -0.217274     -0.375682     -0.126474
O       9.69879      2.04107      5.01700        -0.027905     -0.235824     -0.675214
O       9.68098     13.40098      4.85556         0.447833      0.202370     -0.109622
O       9.85808      1.88704      9.17896        -0.293166     -0.084702      0.373473
O       9.53299     13.31321      9.13206         0.528520      0.450217      0.153532
O       9.72810      5.84627      0.59333        -0.031867     -0.525219     -0.864190
O       9.77287      5.63211     13.53835        -0.278415      0.483064      0.434465
O       9.72000      5.68896      5.03470         0.156445      0.105068     -1.212057
O       9.87960      5.91596      9.21830        -0.055959     -0.528308      0.261331
O       9.53554      9.69112      0.58279         0.529135     -0.362154     -0.878200
O       9.66524      9.52568     13.66399        -0.065058      0.576448      0.768525
O       9.74114      9.52334      4.87725         0.136180      0.291322      0.413495
O       9.77754      9.68541      9.27875         0.035466     -0.183902     -0.986235
O       3.85792      1.81199      2.71347        -0.180896      0.307643     -0.089048
O       4.02012      1.89178     15.81015         0.138491      0.422405     -0.529382
O       3.87887     13.37863      2.70701         0.178556      0.283138      0.195574
O       4.05013     13.63358     15.86449         0.354559     -0.498443     -0.185154
O      15.34611      2.08161      2.74056         0.095973     -0.928589      0.118934
O      15.55946      2.02171     15.91861         0.457570     -0.423991     -1.503293
O       0.05654     13.45516      2.61736        -0.446329     -0.481410      0.413535
O       0.23073     13.31176     15.78264         0.372120      0.566611      0.404984
O       3.92447      1.87872      7.09330        -0.120402      0.021108     -0.114999
O       3.94457     13.35722      7.05134        -0.903699     -0.275561     -0.202113
O       0.17417      1.76394      7.12989         0.293624      0.409784     -0.348502
O       0.10599     13.42461      7.15146         1.312250     -0.097351     -0.776927
O       3.89300      1.82643     11.58354         1.281513      0.460650     -0.860633
O       3.99551     13.23708     11.49757        -0.259060      0.598706      0.205949
O       0.19932      1.83557     11.68661        -0.394382     -0.148433     -0.823883
O      15.42485     13.24262     11.45810         0.478515      0.619223     -0.278663
O       3.89652      5.65009      2.74196         0.095377      0.481256     -0.519501
O       4.16044      5.88115     15.69493        -0.467435     -0.312490      0.826290
O       0.06937      5.69042      2.72861         0.177513     -0.323392     -0.161391
O      15.42824      5.60180     15.87147         1.312497      0.911471     -0.548450
O       3.95666      5.96109      7.21002        -0.533633     -1.504223     -0.309123
O       0.11943      5.67986      7.16790         0.125099      0.823706     -0.365241
O       3.91890      5.73224     11.55171         1.140136     -0.289713     -0.377178
O      15.43215      6.00113     11.29364         1.626983     -0.781935      0.524986
O       3.88417      9.48917      2.75345        -0.190513      0.495435     -0.141887
O       4.10732      9.42955     15.83814         0.867952      0.113642      0.172694
O       0.07126      9.54351      2.71503        -0.630089      0.096909     -0.450274
O       0.27856      9.56689     15.72533        -0.519532      0.281369      0.437775
O       3.95472      9.66399      6.90969         0.863378     -0.602114      0.585137
O       0.13153      9.62528      7.10406        -0.157490     -0.272179      0.115534
O       4.04114      9.72164     11.62198         0.181210     -0.981673     -0.993778
O      15.44866      9.58033     11.66185         0.527887     -0.078989     -0.538415
O       7.70151      1.87856      2.82626         0.226463      0.227613     -0.046275
O       7.97117      1.92214     15.90574        -0.964220      0.320604     -0.504922
O       7.76240     13.45725      2.87724        -0.017099     -0.049213     -0.350919
O       7.87282     13.42764     15.85059         0.479130      0.287189      0.054868
O       7.75435      1.98381      7.11447         0.303500     -0.218237     -0.200402
O       7.76441     13.47028      6.90286        -0.594794      0.175807      0.703571
O       7.75630      1.83377     11.28930        -0.240144      0.439927     -0.262865
O       7.72733     13.53474     11.43584         0.685880     -0.211589     -0.280150
O       7.71250      5.81660      2.66410        -0.104660     -0.304170      0.048023
O       8.00242      5.75069     15.99335        -0.889980      0.149304     -0.577724
O       7.80498      5.74124      7.20153         0.079646      0.105381      0.085226
O       7.88406      5.64579     11.26726        -0.816813      0.461879      0.227268
O       7.75290      9.49236      2.71331        -0.217035      0.141405      0.075139
O       7.92331      9.81480     16.10557        -0.169731     -1.550065     -1.606625
O       7.91939      9.55297      7.06779        -0.826904     -0.451170      0.390207
O       7.85721      9.50690     11.39705         0.245766      0.184973      0.229611
O      11.57377      1.87762      2.90133        -0.090977     -0.056689     -0.105655
O      11.66613      1.94318     15.59671         0.897981     -0.436236      0.658236
O      11.54072     13.53980      2.73088         1.340068     -0.553519      0.508162
O      11.75055     13.44225     15.75865        -0.868598      0.367657      0.278539
O      11.70580      1.99849      7.10881        -0.310256     -0.486189     -0.106021
O      11.63036     13.49223      7.02163         0.716254     -0.386943      0.158226
O      11.64637      1.94610     11.51339         0.103646     -0.080548     -0.475950
O      11.50646     13.30082     11.35077         1.184722      0.683623      0.003755
O      11.58380      5.84080      2.87766        -0.660075     -0.487141      0.249777
O      11.68621      5.76294     15.77547        -0.015157     -0.020813     -0.094646
O      11.67287      5.70721      7.19229         1.180345     -0.310541     -0.607737
O      11.65619      5.66894     11.50452         0.737291      0.363687     -0.317954
O      11.61236      9.61359      2.61077         0.830731     -0.223542     -0.014524
O      11.69467      9.62550     15.90591        -0.220665     -0.161731     -0.605830
O      11.62427      9.64368      7.03960         0.769053      0.384484      0.299296
O      11.65317      9.62109     11.60208        -0.588044     -0.161179     -0.454219
O       2.00054      3.78539      2.74000         0.172671      0.331716      0.159433
O       2.25329      3.93049     15.71628        -0.252977     -2.715758      0.286484
O       1.94020     15.29891      2.73336        -0.113231      0.944997      0.195501
O       2.13115      0.04725     15.82154        -0.662093      0.267346     -0.279598
O      13.32859      3.84602      2.85240         0.733321     -0.947860     -0.247716
O      13.63474      3.80043     15.79681        -0.562390     -0.149873     -0.216511
O      13.54793      0.00121      2.81230        -0.341327     -0.078910     -0.242103
O      13.70625      0.08916     15.63418         0.065193     -0.853184      0.776323
O       2.06461      3.79385      7.03635         0.114389      0.027426     -0.132200
O       2.15327     15.27477      6.95821        -0.394050     -0.418372     -0.066876
O      13.69374      3.81211      7.21323        -0.615211     -0.273892     -0.557454
O      13.57210     15.31931      7.17699        -0.097921     -0.270486     -0.387327
O       2.07259      3.78575     11.48954        -0.499196      0.095525     -0.238696
O       2.04791     15.23497     11.47015         0.061010     -0.346779     -0.121925
O      13.75651      3.82696     11.47651        -0.266678      0.211716     -0.374292
O      13.52106     15.24908     11.48583         0.084441     -0.080962     -0.172599
O       1.93806      7.62886      2.61870         0.342905     -0.446823      0.018228
O       2.10039      7.61164     15.75280        -0.151338      0.060102      0.572613
O      13.50256      7.58269      2.83279         0.173867      1.753295     -0.645258
O      13.63824      7.61369     15.69596         0.054217      0.271124      0.679471
O       2.07485      7.65074      7.04133        -0.642973      0.575385      0.418147
O      13.50197      7.70047      6.98688         0.225203     -0.631775      0.074104
O       2.14766      7.62655     11.49248        -0.194597      0.807020      0.096029
O      13.54598      7.71149     11.49200        -0.519703     -0.641250      0.286466
O       2.03814     11.42728      2.57550        -0.387498      0.589448      0.331694
O       2.42038     11.44439     15.72188        -0.661392      1.121628      0.389399
O      13.52816     11.48041      2.67701        -0.087384     -0.028343     -0.243088
O      13.68093     11.52981     15.78774        -0.030656     -0.828541      0.156012
O       2.08026     11.42464      7.02739        -0.375326      1.726917      0.142928
O      13.58179     11.52976      7.13903        -0.197080     -0.244332     -0.496125
O       2.10059     11.44470     11.58582        -0.555132      0.366093      0.320232
O      13.48794     11.49205     11.48017         0.103198      0.083317      0.227698
O       5.84084      3.78812      2.73992        -0.199597      0.709631     -0.010137
O       6.03353      3.86531     15.80560        -0.103847     -0.355627      0.020295
O       5.81785     15.34506      2.83486        -0.152925      0.105890     -0.263584
O       6.03530      0.14872     15.89634         0.056639     -0.930649     -0.268024
O       5.78697      3.84201      7.23383         0.043447     -0.257396     -0.064043
O       5.85515     15.34577      7.04037        -0.318019     -0.526605     -0.450237
O       5.88110      3.88472     11.40062        -0.459844     -1.620058     -0.419934
O       5.80112     15.29270     11.46539        -0.118637      0.993545     -0.274010
O       5.80259      7.63301      2.81848        -0.107022     -0.598327     -0.759065
O       6.11427      7.74482     16.02134         0.222392     -0.519514     -0.660823
O       5.89343      7.66319      7.25449         0.369609      0.950225     -0.303022
O       5.94360      7.66262     11.39524        -0.086734     -0.403541      0.305608
O       5.91715     11.49368      2.62515        -0.505774     -0.186767      0.579184
O       5.95750     11.54043     15.87189        -0.612705      0.201310     -0.041708
O       6.05098     11.42406      7.01277        -1.053685      0.914179     -0.051752
O       6.03096     11.42579     11.33192         0.205882      1.371977      0.308904
O       9.64372      3.92428      2.75369         0.174290     -0.986818      0.384607
O       9.80447      3.84700     15.74208         0.081920      0.159961      0.354327
O       9.62462     15.33462      2.84826         0.155548      1.006399      0.058207
O       9.77793      0.02586     15.83386         0.421372     -0.669946     -0.294222
O       9.72150      3.86025      7.16405         0.139869     -0.534337      0.290240
O       9.70241     15.34036      7.08266         0.311271      0.884510      0.115636
O       9.73715      3.79609     11.29387        -0.034193     -0.242446      0.071229
O       9.79979      0.01516     11.32298        -0.216715     -0.606848      0.160785
O       9.70663      7.67238      2.69486        -0.012993      0.012916      0.368994
O       9.78375      7.64804     15.82665        -0.093630      1.347240     -0.310320
O       9.89498      7.62210      6.94970        -0.365783      1.479190      0.558918
O       9.74579      7.64441     11.45539         0.292780      0.276787     -0.191555
O       9.66273     11.47356      2.76165         0.373253      0.481027     -0.061715
O       9.84227     11.55465     16.00022        -0.503382      0.268228     -1.608585
O       9.67451     11.57572      6.95801         0.334883     -1.117956      0.452344
O       9.65992     11.57664     11.48816        -0.271773     -0.799267     -0.084537
