  # total energy = -7880.24143908 
CRSYTAL
PRIMVEC
    15.3600000000000000    0.0000000000000000    0.0000000000000000
     0.0000000000000000   15.3600000000000000    0.0000000000000000
     0.2400000000000000    0.0000000000000000    17.440000000000000
PRESSURE
-0.533229 -0.789898 -4.6157 0.089508 -1.23854 0.031458
PRIMCOORD
320 1
Pb       3.81541      3.77619      4.33977         0.325610      0.091173      0.199334
Pb       4.00919      3.81509     17.41617         0.161932      0.435019     -0.207236
Pb       3.84849      0.06748      4.26764        -0.128375     -0.242780     -0.547275
Pb       4.16529     15.30031     17.41561        -0.122992     -0.164364     -0.134686
Pb       0.06294      3.91452      4.37120        -0.250026     -0.379952     -0.302914
Pb      15.47271      3.81104     17.38439         0.252866     -0.104209      0.050950
Pb      15.41202     15.24204      4.28265        -0.003397      0.167304     -0.452585
Pb       0.38879      0.02443     17.39657        -0.449774     -0.076683     -0.180191
Pb       3.78358      3.86343      8.81202        -0.410101      0.098065     -1.546264
Pb       4.01138      0.02742      8.60803        -0.663791     -0.345409     -0.533152
Pb      15.42323      3.80888      8.80176         0.330410     -0.145609     -1.249347
Pb       0.16938     15.34303      8.69078        -0.436664      0.254637     -0.374949
Pb       4.07033      3.71253     13.04089        -0.255135      0.804890     -0.257010
Pb       3.96467     15.32125     12.92784         0.000029     -0.304597      0.184715
Pb      15.45487      3.72073     13.12030         0.438753      0.334097     -0.754193
Pb      15.47140     15.22618     13.04434         0.331537      0.130694     -0.733613
Pb       3.92950      7.68286      4.33411        -0.098577      0.034940      0.207383
Pb       3.97866      7.80518      0.05092        -0.254049     -0.601202     -0.151126
Pb      15.41769      7.72229      4.31615        -0.506686      0.090715     -0.159750
Pb       0.02822      7.57657      0.08636         0.056019      0.221154     -0.680488
Pb       3.95012      7.70268      8.73553        -0.249061      0.115568     -1.032831
Pb       0.14630      7.65990      8.69007        -0.386697     -0.319342     -0.395140
Pb       3.91922      7.61380     13.24269        -0.105178     -0.682598     -1.096680
Pb       0.27703      7.74046     13.06401        -0.341744     -0.577169     -0.559827
Pb       3.93429     11.49868      4.35787         0.005762      0.252672     -0.657912
Pb       3.97896     11.49258     17.31234         0.190805     -0.018090      0.032181
Pb      15.27388     11.42847      4.33080         0.139224      0.253909     -0.276173
Pb      15.31376     11.49335      0.00265         0.126855      0.162314     -0.626395
Pb       3.93454     11.47027      8.62633        -0.043169      0.051097     -0.034904
Pb       0.13204     11.61614      8.69696        -0.241767     -0.118097     -0.202750
Pb       4.00834     11.52476     13.08360        -0.120488      0.106324     -1.234190
Pb      15.44958     11.44086     13.06805         0.206346      0.152317     -1.024066
Pb       7.71707      3.83826      4.40740         0.275901     -0.331259     -0.169490
Pb       7.76683      3.72574     17.39601         0.363675      0.192311     -0.309169
Pb       7.61631     15.26091      4.40218         0.455887      0.280147     -0.687157
Pb       7.64966     15.33496      0.05050         0.222138     -0.222291     -0.862469
Pb       7.82201      3.77246      8.76021         0.261906     -0.371027     -0.979654
Pb       7.70299      0.02378      8.69204         0.700042      0.082875     -0.773958
Pb       7.86114      3.95121     12.95742        -0.251481     -0.604583      0.170120
Pb       7.89396     15.34787     13.03311        -0.099452      0.234593      0.101467
Pb       7.72426      7.54420      4.34289        -0.082587      0.286305     -0.107732
Pb       7.94876      7.73790     17.38433        -0.055672     -0.041366      0.184414
Pb       7.74418      7.72039      8.69525         0.262484     -0.108304     -0.524294
Pb       7.84305      7.70192     13.08497         0.145901     -0.135042     -0.532328
Pb       7.84924     11.49281      4.40064        -0.291986      0.302206     -0.270141
Pb       7.87652     11.59875     17.42566         0.214939     -0.205522     -0.374263
Pb       7.73632     11.44883      8.63187         0.241987      0.260115      0.210222
Pb       7.81698     11.55858     13.03240         0.117955     -0.313187     -0.307082
Pb      11.59381      3.90926      4.38229        -0.383833     -0.387940     -0.492054
Pb      11.75899      3.87454     17.42474        -0.412748     -0.238606      0.234578
Pb      11.53320      0.06353      4.35951        -0.037594     -0.163099     -0.411245
Pb      11.47763      0.08530      0.10661        -0.001090      0.122593     -0.632545
Pb      11.69836      3.82731      8.76508        -0.057412     -0.467430     -0.797632
Pb      11.64653      0.03022      8.66984         0.138682      0.356759     -0.647000
Pb      11.62940      3.70394     12.99176         0.193720      0.662780     -0.065607
Pb      11.65739     15.34252     13.04212        -0.414187     -0.218126     -0.281597
Pb      11.50544      7.61695      4.24711         0.254237     -0.021943      0.204217
Pb      11.63235      7.63045     17.36001         0.101415      0.154657      0.182156
Pb      11.56894      7.65960      8.77723         0.618584      0.084209     -0.842911
Pb      11.80022      7.63043     12.99836        -0.156926     -0.338941     -0.040723
Pb      11.64107     11.43074      4.31868        -0.295709      0.351069     -0.014753
Pb      11.74177     11.60286     17.43924        -0.318424     -0.308289     -0.099882
Pb      11.53875     11.50225      8.79902         0.288698     -0.186826     -0.918490
Pb      11.67154     11.41606     13.06261        -0.345559     -0.004541     -0.183492
Ti       1.89260      1.95646      2.21948         0.435002     -0.925015      1.164904
Ti       2.20643      1.88260     15.33655        -0.817379     -0.189567     -0.743002
Ti       1.93552     13.36073      2.22680         0.950721      0.655158     -0.028013
Ti       2.12618     13.37961     15.26022        -0.321536      1.185054      0.761448
Ti      13.49962      1.88777      2.31605        -0.755108      0.034899      1.060471
Ti      13.62043      1.95240     15.33704         0.044854     -0.802657     -0.461261
Ti      13.51799     13.40643      2.21321        -0.776647      0.507677      1.008010
Ti      13.68731     13.51994     15.33667        -0.027923     -0.120231      0.548366
Ti       1.94879      1.83586      6.54082         0.147757      1.765695     -0.013606
Ti       1.95630     13.45210      6.58436         0.309819      0.167695      0.941756
Ti      13.55336      1.88958      6.51513        -0.531955     -0.327190      0.997143
Ti      13.49461     13.40619      6.70539        -0.072222      0.193737      0.175545
Ti       2.05530      1.85272     10.90167        -1.503738      0.730553     -0.869661
Ti       2.05722     13.45635     10.87123        -0.471276     -0.251516     -0.795020
Ti      13.56397      1.86253     11.04629         0.082165      0.245800     -2.052175
Ti      13.50140     13.40785     10.91043         1.679093     -0.000245     -1.258168
Ti       1.96538      5.74551      2.36599         0.363627      0.743901     -1.718433
Ti       2.12891      5.75566     15.42615         0.697062     -0.052206     -1.151922
Ti      13.45828      5.69532      2.30124        -0.823562     -0.187985      0.549637
Ti      13.58852      5.76137     15.33218         0.063178      0.052657     -0.635974
Ti       1.98866      5.74291      6.65254        -0.154955     -0.706954      1.659692
Ti      13.47036      5.70644      6.67137         0.698935      0.632400     -0.234845
Ti       2.09887      5.70034     10.98660        -0.369837      0.206378     -0.748014
Ti      13.63663      5.70253     10.94578        -0.065191      0.782719      0.172573
Ti       1.91931      9.57496      2.23442        -0.081214      0.284037     -0.036002
Ti       2.06235      9.51084     15.35538         0.314094      0.432958     -0.160813
Ti      13.38166      9.55955      2.15542         0.015495     -0.372793      0.898329
Ti      13.60557      9.63218     15.44939         0.057013     -0.275214      0.691666
Ti       1.96156      9.62372      6.64563         0.435920     -0.106456      0.381803
Ti      13.56548      9.60884      6.77077        -0.830460     -0.690825     -0.464742
Ti       2.07415      9.59892     10.88780        -0.244322      0.258179      0.907847
Ti      13.52676      9.55796     11.01861         1.064016     -0.805222     -1.694059
Ti       5.79515      1.94340      2.31578        -0.095285     -1.080953     -0.067515
Ti       5.91470      1.83738     15.29164         1.367383     -0.101032     -0.420768
Ti       5.84985     13.43711      2.21956        -0.719426     -0.025698      0.314102
Ti       5.91890     13.30762     15.31426         1.123989      1.264130      0.344420
Ti       5.84190      1.89602      6.61892         0.062698      0.701267     -1.078993
Ti       5.86646     13.40751      6.63877        -0.403998      0.229716      0.034198
Ti       5.84083      1.83661     10.97930         0.761469      0.726285      0.736640
Ti       5.91138     13.42131     10.90379        -0.776962      0.210170      0.850959
Ti       5.76243      5.72353      2.35656         0.126158      0.590314     -0.222058
Ti       5.96219      5.75616     15.34208        -0.376564     -0.627863     -0.808669
Ti       5.88852      5.71495      6.67776        -0.986070     -0.931010     -1.176771
Ti       5.93201      5.72824     10.86308        -1.217275      0.065518      2.888767
Ti       5.74720      9.62466      2.36038         0.383214      0.081375     -0.721059
Ti       6.01077      9.45885     15.25404        -0.661756      1.433141      0.266164
Ti       5.91036      9.55998      6.60630        -1.432559     -0.058205     -1.269656
Ti       5.88804      9.50904     11.09294        -0.274469      0.298901     -1.405785
Ti       9.60028      1.89153      2.34773         0.310515     -0.073288      1.036514
Ti       9.76827      1.94447     15.40467         0.273182     -0.804849     -0.254590
Ti       9.71581     13.36439      2.28379        -0.863529      0.649358     -0.060801
Ti       9.87719     13.42105     15.40277        -1.450041      0.949849      0.753160
Ti       9.70245      1.87972      6.57705         0.306887      0.598540     -0.126394
Ti       9.72878     13.37812      6.78171         0.057606      0.330257     -1.788998
Ti       9.70445      1.88849     11.01824        -0.392628     -0.335030     -0.949037
Ti       9.70575     13.32063     10.96587         0.514582      0.377942     -0.686610
Ti       9.54983      5.65652      2.20220         0.846706     -0.054899      1.065367
Ti       9.76627      5.69398     15.30549        -0.079708      0.441035      1.238857
Ti       9.69910      5.67746      6.69658        -0.298509     -0.002811     -0.562251
Ti       9.73666      5.78303     10.95752         0.636479      0.029767     -0.430143
Ti       9.51864      9.55147      2.40786        -0.049414      0.059811     -1.824390
Ti       9.78914      9.58915     15.34948         0.240566      0.130722     -0.920480
Ti       9.72418      9.48883      6.63108         0.821829      0.521930     -0.389916
Ti       9.72952      9.51479     10.96894        -0.558723      0.516667      1.411930
O       1.87809      1.94032      0.43832         0.102378      0.189207     -0.115234
O       2.20626      1.87318     13.49096        -0.042887     -0.050699      1.779545
O       2.07843     13.38662      0.41782        -0.777159     -0.051185      0.947324
O       2.05283     13.56026     13.47681         0.026145     -0.585257      0.816384
O      13.57592      1.95544      0.56461        -0.200777     -0.050514     -0.860329
O      13.65030      1.96701     13.44713        -0.259969     -0.101066      1.473833
O      13.39442     13.49280      0.48949         0.371458     -0.488615     -0.902096
O      13.65661     13.53293     13.51910        -0.104071     -0.144477      1.127440
O       2.00089      1.85528      4.69809        -0.181116      0.237156      1.412603
O       1.85607     13.42439      4.79203         0.130009      0.010179      0.688318
O      13.48524      1.89520      4.75222         0.346280     -0.048230     -0.031791
O      13.62734     13.33684      4.93137        -0.359566      0.094787     -0.259698
O       1.87763      1.98469      9.04068         0.865111     -0.421280      2.034386
O       2.09001     13.64636      8.98274        -0.309580     -0.604699      2.632476
O      13.34365      1.94373      9.19203         0.583510     -0.163954      1.902957
O      13.53712     13.32287      9.04355        -0.067305      0.169020      2.370276
O       2.09431      5.71520      0.52669        -0.631270      0.432259      1.077507
O       2.18382      5.85373     13.54827         0.026970     -0.405576      2.216923
O      13.35896      5.51152      0.54847         0.487737      0.666721     -0.337872
O      13.59382      5.63824     13.50312        -0.043182      0.149665      2.097213
O       1.91570      5.69218      4.89117        -0.093859      0.159524     -0.781127
O      13.38996      5.71445      4.82409         0.700562     -0.093544      1.097552
O       1.95788      5.65154      9.05010         0.685250      0.077870      2.520938
O      13.51701      5.83022      9.11762         0.064926     -0.335299      1.301769
O       1.95160      9.45079      0.41024        -0.270531      0.528137      1.042734
O       1.95268      9.54037     13.52926         0.481936      0.150068      1.038892
O      13.35444      9.57243      0.40074         0.283749      0.196273     -0.126025
O      13.56365      9.60766     13.69194         0.087612      0.013085     -0.621316
O       1.84488      9.73249      4.87343         0.101324     -0.242472      0.438026
O      13.48324      9.49587      4.96941         0.413946      0.518814      0.085323
O       2.10755      9.58097      9.11540         0.041809     -0.107995      0.490195
O      13.51484      9.50912      9.20034         0.153187      0.163948      1.165800
O       5.76316      1.86771      0.50975         0.198495      0.151799      0.399691
O       5.80288      1.86040     13.47491         0.228981      0.052388      0.725770
O       5.82789     13.50987      0.39166        -0.262349     -0.396411      1.163559
O       5.86845     13.28820     13.51968         0.181911      0.207590      0.692367
O       5.83605      1.79527      4.79531        -0.107944      0.311061      0.827582
O       5.81234     13.34021      4.86162         0.338506      0.251345      0.690167
O       5.97651      1.91514      9.23142        -0.234482     -0.278989     -0.444916
O       5.83320     13.52901      9.15248        -0.063780     -0.105775     -0.153393
O       5.76915      5.86200      0.57961         0.172174     -0.403167      0.644273
O       5.72330      5.78587     13.52226         0.704005      0.028980      1.508944
O       5.85157      5.59456      4.84813        -0.025294      0.617485      0.728476
O       5.80670      5.71243      9.14744         0.291403      0.165971     -0.896115
O       5.92996      9.49622      0.52734        -0.753947      0.359089      0.883117
O       5.95180      9.47603     13.44659        -0.125454      0.383849      0.384913
O       5.79242      9.70011      4.72447         0.012245     -0.175505      2.719417
O       5.78571      9.50410      9.19506         0.554403     -0.053335      1.464414
O       9.60667      1.92041      0.60240        -0.216302     -0.187796     -1.042082
O       9.69010      1.86937     13.59617         0.574660      0.070470      0.262267
O       9.44965     13.28656      0.42600         1.068996      0.169438      1.683889
O       9.78012     13.52886     13.62367         0.220646     -0.383647     -0.171411
O       9.62660      2.06890      4.75725         0.101956     -0.729403      1.196662
O       9.77732     13.31947      4.91673        -0.309708      0.096163      1.515505
O       9.63413      1.94267      9.19861         0.336072     -0.036493      1.711100
O       9.80029     13.27447      9.17194        -0.474589      0.413755      1.509533
O       9.43279      5.71879      0.43858         0.303261      0.039382      0.585711
O       9.84814      5.74685     13.56101        -0.019229     -0.050817     -0.581935
O       9.73576      5.62120      4.87889        -0.417172      0.237748      1.016806
O       9.64447      5.77788      9.13173         0.183102      0.057261      1.813431
O       9.49345      9.64031      0.51553        -0.115779     -0.272987      1.436607
O       9.86631      9.61340     13.49810        -0.105742     -0.290118      1.856832
O       9.68293      9.50802      4.81131        -0.182644      0.388805      1.044236
O       9.61744      9.61480      9.24694         0.084607     -0.401752     -1.093868
O       3.82848      1.97565      2.67447         0.454874     -0.330712     -0.107523
O       4.16539      1.97906     15.79501        -1.956107     -0.316703     -0.146954
O       3.83986     13.42899      2.58404         0.424710     -0.055292      0.204295
O       4.04744     13.49585     15.76437        -0.082241     -0.842239     -0.515152
O       0.06269      1.90404      2.67910        -0.375097      0.431225     -0.003424
O       0.21772      1.94586     15.55523         0.123436      0.085093      0.380121
O      15.37700     13.35706      2.60849         0.237609      0.504074     -0.029927
O       0.24276     13.59360     15.79226        -0.274224     -0.438701     -0.473836
O       3.94328      1.80263      6.89983        -0.104174      0.178355      0.293644
O       3.88647     13.51690      6.98263         0.836963     -0.001429     -0.326277
O      15.44200      1.95552      6.95732        -0.539921     -0.531139     -0.310874
O      15.40243     13.46183      7.08593         0.661672     -0.118377     -0.183661
O       3.88972      1.71435     11.22422         1.384157      0.253259     -0.013775
O       3.89785     13.43264     11.39229         0.751656      0.584062     -0.311663
O       0.16707      1.97634     11.27527        -0.707039      0.407438      0.521787
O      15.46776     13.35166     11.34760        -0.046746     -0.223616     -0.083804
O       3.89744      5.84050      2.81789        -0.095928     -0.696029     -0.209727
O       4.15128      5.90718     15.91737        -1.126029     -0.790258     -0.555141
O       0.05543      5.75604      2.54642        -0.099585      0.073921      0.460518
O       0.24042      5.70518     15.73794        -0.675108      0.142722      0.137762
O       3.88049      5.69267      7.04675         0.383585      0.168741      0.094527
O      15.41123      5.70927      7.12431        -0.256796      0.091454     -0.600271
O       4.03238      5.80336     11.42002         0.227638      0.148689     -0.888764
O       0.20863      5.69284     11.41560        -0.790760     -0.698925     -0.317675
O       3.81215      9.69668      2.67794         0.161690     -0.152272     -0.058822
O       4.02214      9.58963     15.71458         0.162667      0.121233     -0.296698
O      15.33288      9.43914      2.54407        -0.017724      0.536641      0.056513
O       0.23836      9.49602     15.80096        -0.957201      0.162229      0.276342
O       3.94296      9.52339      6.99168         0.204719      0.678504     -0.027105
O       0.10510      9.73305      7.12192         0.177481     -0.364734     -0.077129
O       3.96229      9.57556     11.32722         0.380975     -0.270878      0.410266
O       0.20437      9.56491     11.32886        -0.610999      0.373654      0.248930
O       7.64798      1.77707      2.71744         0.542631      0.154761     -0.116562
O       7.98030      1.77877     15.73119        -1.911271      0.592360      0.453796
O       7.81920     13.49157      2.73493        -0.714660     -0.341346     -0.251841
O       7.88987     13.57017     15.83688        -0.339197     -1.013660     -0.747863
O       7.83319      1.89917      7.00522        -0.923266      0.277400      0.322026
O       7.82222     13.43463      7.17834        -1.070853     -0.105095     -0.449020
O       7.83530      2.00821     11.40100        -0.196449     -0.338032      0.024794
O       7.85652     13.36064     11.30147        -0.248288     -0.017966      0.167522
O       7.74775      5.78577      2.78764        -0.963512      0.071289     -0.342917
O       7.89183      5.81983     15.57580        -0.707580      0.125000      0.129252
O       7.74733      5.74439      6.99373         0.090429     -0.046075      0.369705
O       7.84623      5.77073     11.42355        -0.376351     -0.784869     -0.421836
O       7.56781      9.48704      2.78659         1.909127      0.496442     -0.013085
O       7.86097      9.50802     15.62615         0.512883     -0.001565     -0.133369
O       7.86036      9.63436      7.10557        -1.809828     -0.566252     -0.438899
O       7.86694      9.55151     11.48304        -1.162149      0.917767     -0.080389
O      11.54916      1.94294      2.68291         0.217034     -0.168091     -0.109275
O      11.71415      1.95729     15.89637         0.494855     -0.155836     -0.631605
O      11.57825     13.31244      2.67548        -0.274397     -0.290349     -0.266646
O      11.77939     13.39224     15.88120         0.121626     -0.118560     -0.755911
O      11.57673      1.83156      6.91994         0.486015      0.662171      0.152913
O      11.57361     13.40746      7.18289         0.515187     -0.129748     -0.288904
O      11.68992      1.80723     11.50934        -0.800280      0.142100     -0.224216
O      11.71790     13.48527     11.31142        -1.203738     -0.227573      0.438440
O      11.48239      5.69890      2.71103         0.068839      0.164949     -0.545037
O      11.71734      5.72072     15.86920         0.161445     -0.312582     -0.639918
O      11.57408      5.67439      7.03419         1.024141      0.633150      0.277128
O      11.74169      5.88054     11.40077        -1.384566     -0.156739     -0.525643
O      11.46063      9.60583      2.68812         1.258271     -0.094368     -0.351789
O      11.70041      9.74378     15.80284         0.009160     -0.341794     -0.157106
O      11.58350      9.55870      7.12973        -0.269678      0.021376     -0.023183
O      11.64276      9.49110     11.26612         0.259953     -0.373817      0.542224
O       2.00180      3.92485      2.70145        -0.206196     -0.939361      0.024284
O       2.19383      3.81502     15.77691         0.307197      0.110994     -0.327938
O       1.90611      0.04841      2.63610         0.101550     -0.727961     -0.320406
O       2.16750     15.32639     15.84411         0.396042      1.076028     -0.663594
O      13.40534      3.78152      2.70341         0.825122      0.735476      0.185485
O      13.57924      3.80046     15.84445         0.592530      0.365970     -0.641938
O      13.36840     15.28421      2.63964         0.563961      0.308205      0.242483
O      13.64422      0.04785     15.85158        -0.213212      0.126229     -0.677586
O       1.91692      3.77667      7.03928         0.658495      0.140700     -0.338559
O       1.91298      0.05151      7.06050         0.193726     -1.017125     -0.667497
O      13.51520      3.74184      7.06179        -0.283377      1.136156     -0.212266
O      13.44546      0.01273      7.04115         0.389045     -0.382505     -0.146034
O       2.19903      3.81673     11.36310         0.005456     -0.489794     -0.214284
O       1.90983     15.32380     11.33039         0.236888      0.293478     -0.177912
O      13.41960      3.85336     11.28537         0.500233     -0.510045      0.233704
O      13.69318     15.30975     11.21374        -0.295786      0.032441      0.447169
O       1.99429      7.76294      2.85399        -0.065489     -0.872504     -0.469587
O       2.10648      7.66615     15.78299         0.103331     -0.547566     -0.228755
O      13.46711      7.60032      2.60953        -0.395776      0.758456     -0.128249
O      13.50248      7.64215     15.83679         0.616836     -0.193311     -0.459433
O       1.99261      7.70533      7.08076        -0.323060      0.077190     -0.474808
O      13.60652      7.68692      7.06057        -0.257295     -0.642197      0.115883
O       1.96496      7.55408     11.45524         0.834346      1.336156     -0.696411
O      13.67915      7.62221     11.51534        -0.109519      0.723767     -0.325590
O       1.90339     11.50635      2.60503        -0.279380     -0.574783     -0.185679
O       2.00679     11.56220     15.71775         0.473861     -0.806531     -0.156052
O      13.50095     11.47839      2.59435        -0.043914     -0.997105      0.022885
O      13.84258     11.55797     15.72403        -0.363285      0.128312      0.086721
O       2.00309     11.60060      7.19631         0.252826     -0.521337     -0.918077
O      13.48128     11.50610      7.03126         0.091015     -0.098571      0.207672
O       2.10350     11.56076     11.28652        -0.155163     -0.840874     -0.094779
O      13.49735     11.39240     11.50338         0.263961      0.987769     -0.255159
O       5.85362      3.77941      2.66346        -0.186825      1.168828     -0.139661
O       6.01086      3.83261     15.72983         0.173227      0.173260     -0.042847
O       5.81365     15.28178      2.67612        -0.433963      0.156968      0.139864
O       5.96205     15.34461     15.67313        -0.289156      0.097010     -0.018222
O       5.85732      3.80166      6.97315         0.084382     -0.403743      0.407390
O       5.95978     15.35408      6.95809        -0.133111     -0.586587      0.476985
O       5.80751      3.76410     11.41661         0.308205      0.591817     -0.578963
O       5.95739     15.32564     11.39863         0.068829     -0.160155     -0.194149
O       5.69156      7.73124      2.80461         0.275811     -1.004502     -0.239297
O       5.94135      7.69973     15.79948         0.335224     -0.276642     -0.389179
O       5.81193      7.64852      6.91143         0.473264      0.766148      0.371528
O       6.05723      7.66788     11.37294        -0.508651     -0.387989     -0.479951
O       5.80464     11.58152      2.73257         0.196752     -0.194555     -0.480028
O       5.96834     11.46149     15.70388         0.007753     -0.174000     -0.168174
O       5.80371     11.49757      7.10779         0.373940     -0.190936     -0.469315
O       5.80733     11.63120     11.39424         0.421764     -1.773299      0.086848
O       9.55077      3.79698      2.69479        -0.204459      0.760075     -0.448661
O       9.67855      3.85144     15.82596         0.466595     -0.350424     -0.396952
O       9.80685     15.34060      2.75842        -0.557519     -0.933453     -0.492758
O       9.84119     15.33329     15.83974         0.775599     -0.016008      0.017424
O       9.75077      3.85500      7.21987        -0.576823     -0.731560     -0.444509
O       9.75272      0.04283      7.06053        -0.532566     -1.038521     -0.040831
O       9.80228      3.84867     11.46307         0.069018      0.076418     -0.474969
O       9.69147     15.33574     11.42417         0.211671     -0.322460     -0.192902
O       9.63926      7.69842      2.79627        -0.443624     -0.888609     -0.657366
O       9.84796      7.60967     15.84419         0.127626      1.150216     -0.658377
O       9.65948      7.62281      7.03518         0.024276      0.528312      0.213083
O       9.59370      7.65917     11.33623         0.753899     -0.816602      0.049395
O       9.57836     11.45344      2.81296         0.013427      0.438426     -0.416723
O       9.69766     11.48453     15.71715         0.197524      0.076664     -0.112632
O       9.61831     11.48773      7.16979         0.562733     -0.483852     -0.479290
O       9.81960     11.40616     11.44043         0.046251      1.749017     -0.048686
