  # total energy = -7882.99330890 
CRSYTAL
PRIMVEC
    15.3600000000000000    0.2300000000000000    0.0000000000000000
     0.0000000000000000   15.3600000000000000    0.0000000000000000
     0.0000000000000000    0.0000000000000000    17.440000000000000
PRESSURE
0.052923 0.380063 -0.639093 -0.193357 -0.169695 -1.55137
PRIMCOORD
320 1
Pb       3.87035      3.86776      4.27220        -0.714430      0.168164      0.331029
Pb       3.81363      3.89380     17.37088        -0.303800      0.450618      0.108845
Pb       3.76799     15.37928      4.39308         0.235786      0.250184     -0.131158
Pb       3.79970     15.34701      0.00388        -0.228042      0.174482     -0.562527
Pb       0.02127      3.77391      4.24600         0.429732      0.460797      0.270042
Pb      15.33975      4.00837     17.37519         0.267611      0.380402      0.108861
Pb      15.32216     15.56648      4.34538         0.321935      0.331863      0.363135
Pb      15.31083     15.52833     17.38652         0.207899      0.083826      0.126316
Pb       3.85575      3.87579      8.66808        -0.084504     -0.002606      0.014503
Pb       3.81540      0.07701      8.73220        -0.152084     -0.269767      0.007034
Pb       0.02188      3.97669      8.71196        -0.106480     -0.476452      0.295637
Pb       0.01202     15.30137      8.69207        -0.019711      0.020218      0.111998
Pb       3.90575      3.91856     13.01541        -0.471904     -0.252023      0.608154
Pb       3.81568      0.09736     13.06578         0.031213     -0.025894      0.121994
Pb      15.34961      4.09909     13.00693        -0.364058     -0.204294      0.452073
Pb       0.00558      0.01445     13.03906        -0.647798      0.125355      0.551185
Pb       3.85117      7.71862      4.34751        -0.212415      0.073918     -0.524494
Pb       3.83819      7.77135     17.37079        -0.440386     -0.789745      0.420964
Pb      15.28122      7.84313      4.31736        -0.014793     -0.142878     -0.146746
Pb      15.32237      7.91070     17.39752         0.037228     -0.123023     -0.441449
Pb       3.78215      7.69366      8.65450         0.129894      0.162771     -0.142653
Pb      15.28398      7.92499      8.72063         0.537896     -0.095952     -0.222613
Pb       3.81088      7.72413     12.98501         0.216185     -0.009804      0.176587
Pb      15.35572      7.89892     13.02102         0.066048     -0.459250     -0.070887
Pb       3.81786     11.56407      4.26723         0.241846     -0.165980     -0.085635
Pb       3.80953     11.58548     17.40661         0.044032     -0.001119     -0.202233
Pb       0.01238     11.54708      4.26669        -0.381125     -0.583635      0.274133
Pb       0.04770     11.50340      0.02606        -0.358390      0.015226     -0.409855
Pb       3.77266     11.55988      8.63130        -0.018561      0.008654      0.246492
Pb      15.31924     11.76140      8.63359         0.314733     -0.107329      0.108789
Pb       3.79596     11.53478     12.98725         0.487009      0.142459     -0.012423
Pb       0.01933     11.43779     13.03412        -0.302107      0.510516     -0.134968
Pb       7.60081      3.89778      4.33101         0.651955     -0.203768      0.147700
Pb       7.63968      3.95063     17.37516         0.106753      0.055082      0.325699
Pb       7.57209     15.44690      4.34859         0.432167      0.024016     -0.195794
Pb       7.68744      0.15096     17.39535         0.025334     -0.361540     -0.117461
Pb       7.63787      3.98978      8.65545        -0.043885     -0.193917     -0.219443
Pb       7.66435     15.41208      8.68237        -0.188837      0.428779      0.067714
Pb       7.66680      3.89969     12.99511         0.006679     -0.080454      0.957169
Pb       7.63964     15.35248     13.07003         0.294010      0.543469      0.217933
Pb       7.70591      7.73589      4.37706         0.001386      0.207494     -0.404767
Pb       7.72460      7.81608      0.01757        -0.426003     -0.597612      0.049628
Pb       7.73631      7.79848      8.67093        -0.283913      0.158474     -0.361226
Pb       7.65573      7.78401     13.02952        -0.631897      0.319230     -0.188078
Pb       7.69131     11.72958      4.36511        -0.018982     -0.458758     -0.193766
Pb       7.68081     11.57961      0.00298        -0.121245      0.233856     -0.286119
Pb       7.62219     11.66878      8.75429         0.148935     -0.334046     -0.647460
Pb       7.69235     11.62536     13.13292        -0.122296     -0.393490     -0.973897
Pb      11.49122      4.02074      4.37652        -0.186968     -0.154368     -0.352863
Pb      11.49728      3.96171     17.43717        -0.287620     -0.111504     -0.389267
Pb      11.54378      0.18522      4.26908        -0.663007     -0.202319      0.212269
Pb      11.46387     15.42684      0.02827        -0.157987      0.233781     -0.583960
Pb      11.48761      3.98193      8.70332         0.135111      0.256462     -0.243384
Pb      11.52168     15.51544      8.69585         0.195694     -0.118735      0.018423
Pb      11.50973      4.00729     13.06765         0.173088     -0.495964      0.268523
Pb      11.55937     15.42806     13.01006        -0.151090      0.707124      0.330008
Pb      11.43691      7.90284      4.28231         0.449918     -0.416833      0.208515
Pb      11.52733      7.79963     17.40604         0.220940      0.240653      0.158752
Pb      11.51552      7.81023      8.64649        -0.557115      0.064831     -0.093532
Pb      11.49795      7.78836     13.06596         0.195238     -0.085414     -0.231985
Pb      11.56519     11.61672      4.29559        -0.217861      0.305923     -0.080311
Pb      11.55423     11.68679     17.36391        -0.228254     -0.513341      0.322421
Pb      11.46874     11.68264      8.58492        -0.241005     -0.066495      0.375674
Pb      11.52981     11.63275     13.02404        -0.116277      0.169043     -0.264005
Ti       1.94976      1.92453      2.29764        -0.232614      0.594101      0.686587
Ti       1.83738      1.96641     15.27695         0.425166      0.053793      0.178745
Ti       1.91239     13.53563      2.40839         0.066480     -1.025933     -1.653522
Ti       1.82490     13.50771     15.33535         0.701636     -0.327213      0.346625
Ti      13.50362      2.13042      2.27959        -0.836698      0.078135      0.052026
Ti      13.40021      2.09955     15.41980         0.227743      0.732998     -1.747660
Ti      13.48470     13.71613      2.36199        -0.970942     -1.632727     -2.068649
Ti      13.39322     13.64770     15.40269        -0.308464     -0.816935     -0.830986
Ti       1.88065      1.91409      6.68972         0.368246      0.032658     -0.759837
Ti       1.89899     13.47056      6.61729         0.042679     -0.428610      0.086891
Ti      13.47812      2.12148      6.66775        -0.127730     -0.307403      0.157777
Ti      13.39285     13.63821      6.69250         0.190549     -0.268809      1.339621
Ti       1.86927      1.84572     11.06550         0.416729      0.584169      1.224236
Ti       1.89671     13.46268     11.10194        -0.321008     -0.776338     -1.839314
Ti      13.43411      2.10131     10.98939         0.312989      0.379530      0.426447
Ti      13.38941     13.63337     10.98350         0.513874     -0.405176      0.922072
Ti       1.93230      5.84941      2.24413         0.060237     -0.669858      0.118752
Ti       1.84331      5.78243     15.29007         0.219028      0.049526      2.012373
Ti      13.41207      5.87578      2.26508         0.539943      0.802298     -0.331984
Ti      13.35411      5.90799     15.38774         0.603372      0.215629      0.143032
Ti       1.86206      5.78357      6.59767         0.297625      0.090456      0.390531
Ti      13.42455      5.93954      6.63632        -1.120014      0.239297     -0.534667
Ti       1.96261      5.65951     11.08548        -0.967085      1.307910     -0.956766
Ti      13.41575      5.93354     11.00595         0.401405      0.410782      0.831435
Ti       1.86972      9.63804      2.27931         0.322329     -0.744366      1.707705
Ti       1.94306      9.65324     15.29098        -0.622753     -0.828691      0.880296
Ti      13.42658      9.72134      2.31871        -0.297881      0.376558     -0.449421
Ti      13.39436      9.78431     15.36842         0.256615     -0.512454      2.599498
Ti       1.85681      9.66406      6.54943         0.295985      0.237741      1.942887
Ti      13.33551      9.75776      6.65681         0.460759      0.918271     -2.415456
Ti       1.95933      9.58222     11.01488        -0.020224     -0.338237      0.994588
Ti      13.42413      9.76557     11.08945        -0.281675     -0.030930      1.370736
Ti       5.74414      1.93027      2.31252         0.194106      0.299250      0.808029
Ti       5.72674      1.97317     15.44493        -0.243498      0.054497     -0.522954
Ti       5.79485     13.47356      2.24779        -0.478204     -0.195795      1.528156
Ti       5.70454     13.49642     15.33217         0.621976      0.000688      0.097391
Ti       5.71540      1.99322      6.66878         0.117088     -0.305239      0.099364
Ti       5.69567     13.60732      6.73274         0.278546     -1.211463      0.245543
Ti       5.81011      1.98228     11.05607        -1.279321     -0.003446     -0.503617
Ti       5.72259     13.60147     11.04059        -0.184427     -1.146900     -0.777406
Ti       5.77765      5.78068      2.35562        -1.373044      0.292719     -1.499190
Ti       5.64382      5.81757     15.37502        -0.149167      0.406586      0.235947
Ti       5.70288      5.83261      6.56678         0.343308     -0.008369      0.900817
Ti       5.75520      5.83173     11.02483        -0.674684      0.712144     -0.706534
Ti       5.75950      9.60275      2.35146        -0.193831      0.551121      0.018460
Ti       5.72968      9.63406     15.41900         0.078497      0.423313     -0.912262
Ti       5.70387      9.72848      6.68730        -0.010818     -0.348691      0.616528
Ti       5.72554      9.69058     10.92823         0.317271     -0.307989      0.335669
Ti       9.61290      2.04725      2.32313        -0.173910     -0.506433     -0.167948
Ti       9.55914      2.01741     15.42467         0.212466      0.317590     -0.424528
Ti       9.58597     13.55529      2.27657         0.335629      0.062747      1.688735
Ti       9.52029     13.47950     15.35464        -0.146078      0.722032      4.555163
Ti       9.59121      2.03838      6.69285        -0.241336      0.391503      1.175127
Ti       9.53307     13.67416      6.66586         0.773411     -0.929688     -1.786681
Ti       9.53234      2.03550     11.03025         0.267113     -0.155355      1.799232
Ti       9.55760     13.60417     10.95645         0.029622     -0.633821      1.164718
Ti       9.58725      5.80188      2.28061        -0.268860     -0.168012      0.408940
Ti       9.49270      5.83005     15.35732         0.467036     -0.342192      3.152464
Ti       9.58369      5.89480      6.61600         0.100609     -0.377112     -0.065576
Ti       9.54184      5.87018     11.02493         0.792627     -0.060244     -0.195541
Ti       9.57943      9.69534      2.34031        -0.589759      0.385385      0.951710
Ti       9.52878      9.64347     15.41584         1.132107      0.216548     -0.014241
Ti       9.53301      9.78345      6.55126         0.003518     -0.038325      0.471001
Ti       9.56341      9.68489     11.04805        -0.207992      0.881488     -0.789802
O       1.89087      1.83934      0.54631         0.152069     -0.021548      0.539902
O       1.83509      1.89904     13.49827         0.149228      0.026217      0.880669
O       1.78928     13.54216      0.56034         0.335205     -0.070497      1.031967
O       1.99615     13.42758     13.56838        -0.401344     -0.011163      1.062656
O      13.48290      2.18264      0.51188         0.029342     -0.512498      0.739332
O      13.53402      2.26122     13.55277        -0.717246     -0.229742      2.233511
O      13.50376     13.77138      0.48045        -0.468747     -0.442807      1.736050
O      13.36427     13.43701     13.59271        -0.144595      0.676197      1.881464
O       1.96063      1.86754      4.90744        -0.385618      0.169857      0.820243
O       1.93545     13.46251      4.78168        -0.150110     -0.106095      1.152526
O      13.45466      2.11866      4.85111        -0.014173     -0.143008      1.547168
O      13.45968     13.67844      4.97495        -0.084905     -0.105931     -1.036066
O       1.75827      1.84822      9.35253         0.215670      0.034124     -1.145358
O       1.81280     13.41280      9.23154         0.281923      0.073746      2.114460
O      13.53593      1.99692      9.20940        -0.330770      0.274061      1.302680
O      13.41789     13.63804      9.20650         0.028813     -0.067401      0.800706
O       1.93649      5.79849      0.47187        -0.257054     -0.010840      0.542211
O       2.03269      5.71893     13.58556        -0.156424      0.230577     -1.528711
O      13.52974      5.83530      0.48212        -0.302533      0.292721      0.883242
O      13.38426      5.90620     13.61641        -0.035025      0.002108      0.401930
O       1.88756      5.83532      4.83699         0.119579     -0.117066      1.657241
O      13.35635      6.00200      4.86701         0.162030     -0.323324      0.451044
O       1.71779      5.80899      9.28310         0.412088     -0.469851      0.418583
O      13.57580      6.00970      9.23727        -0.506672      0.258475     -0.175111
O       1.59393      9.56080      0.58389         0.767979      0.298721     -0.942484
O       2.03001      9.70812     13.52437        -0.326224     -0.178103      0.686962
O      13.41401      9.68605      0.50248         0.173427      0.394216      1.484652
O      13.31553      9.72108     13.65450         0.095084      0.139684     -1.331903
O       2.02732      9.74763      4.84236        -0.284328     -0.350417     -0.694987
O      13.29120      9.81045      4.77955         0.066649     -0.337171      1.995550
O       1.96469      9.72179      9.29936        -0.320608     -0.238371     -0.510921
O      13.48353      9.76373      9.39948        -0.212825     -0.204156     -1.713917
O       5.68453      2.05974      0.57348        -0.011522     -0.404959      0.045131
O       5.86041      2.12442     13.67762        -0.390401     -0.615048      0.570836
O       5.88382     13.45234      0.53885        -0.390798     -0.081446     -0.666427
O       5.69525     13.58928     13.52674         0.292849     -0.382521      0.936224
O       5.69948      1.82746      4.90060         0.091920      0.300915      0.358354
O       5.85424     13.52891      4.97205        -0.594745      0.233301      0.177500
O       5.67327      2.05967      9.26635         0.539822     -0.257520      1.118923
O       5.63214     13.68151      9.22245         0.473777     -0.266715      1.332334
O       5.54360      5.78214      0.50947         0.698035     -0.060236      1.956367
O       5.50519      5.98956     13.56401         0.843451     -0.787274      1.561209
O       5.70203      5.81949      4.78332         0.030695      0.058881      1.187732
O       5.64919      5.77465      9.22632         0.216361      0.012542      1.102654
O       5.59947      9.64536      0.58545         0.791430      0.083442      0.069774
O       5.81562      9.59789     13.62747        -0.149839      0.226595      1.307488
O       5.60405      9.67444      4.94119         0.394065      0.034532     -0.246571
O       5.72508      9.49451      9.14772         0.251338      0.457913      0.900695
O       9.56159      2.06455      0.56208         0.065306     -0.123696      0.035855
O       9.47729      2.24231     13.65534         0.231375     -0.615937      0.489101
O       9.52137     13.55802      0.52694         0.036121     -0.065165      0.255782
O       9.48982     13.57908     13.71996         0.171666     -0.184523     -3.766975
O       9.72661      2.08766      4.98930        -0.050145     -0.120717     -0.815577
O       9.69696     13.70750      4.84341        -0.640758     -0.029451      1.651514
O       9.24051      2.03653      9.34329         0.955761      0.033551     -0.606244
O       9.53408     13.59755      9.23247         0.084294     -0.147924     -1.105761
O       9.48104      5.66711      0.51436         0.276923      0.634722      1.218561
O       9.43358      5.89922     13.67542         0.172135      0.072806     -2.182631
O       9.56604      5.74067      4.82572         0.292546      0.359007      1.092670
O       9.69002      5.91416      9.26720        -0.276423     -0.102742      0.371239
O       9.50890      9.70069      0.60805        -0.112234     -0.143600     -0.897755
O       9.55896      9.66104     13.60759        -0.256623     -0.037926      1.027603
O       9.65506      9.63458      4.77037        -0.299992      0.280186      1.074670
O       9.44861      9.75425      9.23282         0.243996     -0.119404      1.419957
O       3.80848      1.94996      2.85658         0.444541     -0.268822     -0.851304
O       3.74906      1.88187     15.68101         0.460432     -0.011459      0.246353
O       3.79111     13.50529      2.68879         0.988390     -0.250997     -0.274311
O       3.84019     13.46119     15.91343        -0.794707      0.099644     -0.461606
O       0.06048      1.83312      2.87132        -0.440971      0.174589     -0.924750
O      15.29441      2.08181     15.86790         0.316444      0.279550     -0.494670
O      15.32985     13.62207      2.78415         0.173423      0.255886      0.015650
O      15.27968     13.57470     15.87473         0.404824      0.229478     -0.936893
O       3.78882      1.94323      7.04977        -0.079442      0.389509      0.411130
O       3.79607     13.42393      7.21508         0.011911      0.531237     -1.050784
O      15.35608      1.99328      7.14437        -0.643202      0.501767     -0.739598
O       0.00034     13.35547      7.14590        -0.259618      0.283644     -0.807519
O       3.81423      1.80921     11.40908         0.538069      0.376833      0.015169
O       3.81993     13.65281     11.49196        -0.147455     -0.601603     -0.461559
O       0.00446      1.91090     11.60851        -0.760319     -0.164532     -1.157131
O      15.30408     13.64861     11.64726        -0.211305     -0.365829     -1.142262
O       3.81830      5.75896      2.78033         0.553508      0.110149     -0.172387
O       3.73449      5.74687     15.85167         1.303634      0.094253     -0.475042
O       0.04502      5.78993      2.83855        -0.956048      0.051154     -0.714949
O      15.32982      6.02398     15.60680        -0.177464     -0.270121      0.339928
O       3.79557      5.65152      7.12218        -0.616164      0.757529     -0.864452
O      15.24617      6.02051      7.02424         1.494054      0.265627     -0.038767
O       3.82312      5.80725     11.45263         0.432163     -0.316894     -0.330473
O       0.02135      5.84533     11.53158        -0.207603     -0.336118     -0.212780
O       3.83152      9.65931      2.71659         0.035939     -0.176593     -0.092572
O       3.83505      9.73348     15.83140        -0.409421     -0.246539     -0.243260
O      15.32739      9.67850      2.83872         0.047515      0.626060     -0.524940
O      15.30924      9.81993     15.78779         0.255797     -0.053003     -0.602368
O       3.81648      9.65275      7.09854        -0.295828      0.151282     -0.150052
O      15.26889      9.86632      6.96434         0.379803     -0.030112      0.026848
O       3.87119      9.67455     11.41743        -0.243135      0.016443     -0.166957
O       0.04977      9.48366     11.47033        -0.783802      0.442844     -0.001644
O       7.70326      1.97196      2.82088        -0.961292      0.151436     -0.397425
O       7.66354      2.02026     15.90621        -0.651930     -0.110825     -0.222310
O       7.67956     13.53433      2.87600         0.249027      0.177587     -0.965886
O       7.58830     13.46368     15.81375         0.510457      0.333975     -0.281341
O       7.61293      1.94514      7.08917         0.587698      0.334279     -0.326505
O       7.66104     13.64813      7.09176        -0.325060     -0.106849      0.067800
O       7.63918      1.95953     11.60957         0.166907      0.280894     -0.704266
O       7.69060     13.58797     11.31548        -0.901999     -0.056587      0.470815
O       7.63205      5.74155      2.79452         0.857499      0.241115     -0.486506
O       7.60927      5.84671     15.83274        -0.603126      0.074130     -0.404112
O       7.69082      5.74609      7.01060        -0.494001      0.458880     -0.163207
O       7.63716      5.93580     11.29361         0.042552     -0.014021      0.275096
O       7.67447      9.66954      2.86248        -0.390937     -0.194759     -0.415724
O       7.65107      9.56581     15.86377        -0.070148      0.188565     -0.139474
O       7.65888      9.66223      7.12995        -0.036166     -0.045130     -0.583252
O       7.62618      9.72540     11.49217         0.473346     -0.182836     -0.240566
O      11.53487      2.10796      2.69203         1.143354     -0.067688     -0.087881
O      11.48191      1.98785     15.88329         0.168021      0.538365     -0.242952
O      11.55541     13.60111      2.84607        -0.078070      0.096039     -1.074790
O      11.43101     13.52612     15.90003         0.491083      0.509341     -0.506434
O      11.50506      2.00203      7.27847         0.580574      0.407260     -0.746256
O      11.42036     13.63075      7.20448         0.913656     -0.176293     -0.491776
O      11.52202      2.14253     11.50349        -0.260566     -0.051871     -0.909010
O      11.49632     13.67416     11.51506         0.285713     -0.552735     -0.676559
O      11.50090      5.83282      2.65091         0.024969     -0.384310     -0.230005
O      11.43837      5.78873     15.63901         0.395705      0.254607      0.479003
O      11.47819      5.93020      7.14654         0.528587     -0.104548     -0.199439
O      11.52582      5.74933     11.56430        -0.800536      0.893141     -0.868035
O      11.46118      9.71864      2.74021         0.739900      0.170930     -0.430030
O      11.44119      9.68607     15.94143        -0.200217      0.158391     -0.604846
O      11.41024      9.80977      7.15483         0.166328     -0.157309     -0.367511
O      11.47071      9.73433     11.49447        -0.083730      0.228781     -0.214577
O       1.90039      3.90657      2.72195        -0.025384     -1.283115     -0.264003
O       1.89460      3.83483     15.74362        -0.401924     -0.341887     -0.195014
O       1.92930     15.34847      2.81667        -0.237213      0.870486     -0.281879
O       1.77621     15.38113     15.72322         0.446812     -0.905483     -0.115198
O      13.57976      4.01002      2.68648        -0.264299     -0.186115      0.009436
O      13.47357      4.00153     15.99569        -0.515769      0.104640     -1.151387
O      13.49522     15.53678      2.66955        -0.095301      0.871558      0.250590
O      13.33828      0.21452     15.69405         0.292482     -1.142963      0.070623
O       1.77935      3.81904      7.19054         0.260016      0.685037     -0.904340
O       1.97326     15.33314      7.01300        -0.361919      0.054428      0.136671
O      13.40377      4.05141      7.08796         0.010279     -0.835498     -0.270527
O      13.47153     15.49372      7.17213        -0.538694      0.445970     -0.647715
O       1.96467      3.81050     11.49649        -0.185909     -0.178539     -0.553081
O       1.79806     15.28129     11.52563         0.153276      1.074724     -0.309513
O      13.52753      4.11883     11.35839         0.069342     -1.793008     -0.157261
O      13.40543     15.55605     11.56089         0.188766      0.073579     -0.880586
O       2.00304      7.67829      2.68605        -0.258074      0.920420      0.168447
O       1.93297      7.69073     15.76518        -0.031301      1.008191     -0.497772
O      13.33590      7.81055      2.62550         0.361869      0.080339      0.195260
O      13.34440      7.82945     15.88823         0.017003     -0.165159     -0.601972
O       1.86996      7.81694      7.09732         0.090203     -1.685044     -0.506702
O      13.31152      7.95283      7.00846         0.271853     -1.261476      0.486576
O       1.99448      7.63384     11.37007        -0.154598      0.979448      0.199819
O      13.32083      7.81528     11.49408         0.295912      0.521873      0.040988
O       1.91420     11.52937      2.66646        -0.398155      0.030230     -0.007408
O       1.89141     11.49986     15.82395        -0.117938      0.688327     -0.084375
O      13.43150     11.69154      2.78953         0.215113      0.065886     -0.629317
O      13.29470     11.65350     15.85101         0.463402      0.458429     -0.393604
O       1.93054     11.58185      7.06998        -0.189654     -0.668797     -0.280225
O      13.36246     11.65276      7.14479        -0.216179      0.813309     -0.175053
O       1.91229     11.56220     11.55799         0.037702     -0.259218     -0.563923
O      13.36062     11.69647     11.40927         0.285151      0.061653      0.042309
O       5.75530      3.88013      2.89639        -0.152764     -0.584141     -0.952590
O       5.72581      3.88749     15.91627        -0.332775      0.246831     -0.917342
O       5.76121     15.38134      2.65245        -0.094806      0.445543     -0.001648
O       5.73167     15.39649     15.90864         0.053236      0.292917     -0.441956
O       5.75156      3.87522      7.09742        -0.211966      0.403905     -0.381359
O       5.65170      0.09174      7.20104         0.080103      0.097970     -0.474461
O       5.73420      3.93964     11.53593         0.157128     -0.577367     -0.817244
O       5.81630     15.43433     11.59062        -0.248655      0.720565     -0.656304
O       5.83503      7.69029      2.79668        -0.438875      0.286942     -0.237116
O       5.66910      7.73148     15.96047         0.219592     -0.144008     -0.964604
O       5.66552      7.69211      7.09016         0.273264     -0.500640     -0.641022
O       5.74129      7.78048     11.55198        -0.102538     -0.223605     -0.947098
O       5.80084     11.56610      2.73154        -0.106747      0.379491     -0.060173
O       5.80999     11.59642     15.75060        -0.369462     -0.593284      0.111594
O       5.79604     11.62696      7.15796        -0.070623     -0.023189     -0.204697
O       5.70588     11.61296     11.29200         0.204114      0.304451      0.106504
O       9.60565      3.87032      2.86297        -0.170166      1.314697     -0.403770
O       9.58015      3.91236     15.92495        -0.296215      0.365631     -0.622473
O       9.64110      0.15963      2.70382         0.028768     -0.903709     -0.143846
O       9.49117     15.46073     15.81209         0.284312     -0.295615     -0.027576
O       9.71262      3.96659      7.22575        -0.698375     -0.281238     -0.587021
O       9.62197      0.15871      7.14597        -0.245591      0.244280     -0.002221
O       9.41757      3.99724     11.46321         0.575388     -0.651212     -0.477715
O       9.58076     15.46177     11.48848         0.086374      0.930442     -0.100306
O       9.59629      7.74816      2.81603        -0.477386     -0.743549     -0.868087
O       9.60929      7.72385     16.06462        -0.398710      0.248311     -1.343741
O       9.59009      7.80848      7.01708        -0.108585     -0.240164     -0.134712
O       9.65100      7.79705     11.37408        -0.343544     -0.142484      0.258829
O       9.55758     11.60414      2.72431         0.102604      1.053825     -0.178956
O       9.50075     11.56886     15.80048         0.050290     -0.344643     -0.170222
O       9.47914     11.68455      6.85575         0.143143     -0.059507      0.543143
O       9.52857     11.71789     11.48102         0.337753     -0.716337     -0.025062
