  # total energy = -7882.78064584 
CRSYTAL
PRIMVEC
    15.3600000000000000    0.2300000000000000    0.0000000000000000
     0.0000000000000000   15.3600000000000000    0.0000000000000000
     0.0000000000000000    0.0000000000000000    17.440000000000000
PRESSURE
0.539161 0.519833 -4.56166 0.08585 0.302866 -1.58221
PRIMCOORD
320 1
Pb       3.76762      3.84106      4.27285         0.415159     -0.026260      0.027978
Pb       3.78967      3.93539     17.35881         0.160443      0.344428      0.176341
Pb       3.69422      0.07418      4.39126        -0.008632      0.104248      0.062572
Pb       3.72266     15.38970     17.27861         0.011567     -0.038375      0.243544
Pb       0.01771      3.77401      4.34671        -0.088440     -0.134900     -0.254147
Pb      15.33025      4.01467     17.31659         0.151247     -0.039827     -0.054381
Pb      15.30255      0.35917      4.32708         0.205075     -0.273633      0.042868
Pb      15.32880     15.52159     17.31389        -0.228240      0.095940      0.302674
Pb       3.80900      4.01857      8.68533         0.342249     -0.298321      0.208100
Pb       3.70016      0.12462      8.79386         0.406374     -0.396072     -0.171903
Pb       0.02551      4.02523      8.86678        -0.306279     -0.239115     -0.406814
Pb      15.30218      0.26386      8.75472        -0.257160     -0.082851     -0.324495
Pb       3.96467      3.98546     13.08372         0.008600      0.156345     -0.332205
Pb       3.82748      0.14982     13.05367         0.028757     -0.608556      0.008483
Pb      15.32043      4.07814     13.04500         0.184019     -0.207146     -0.342060
Pb      15.29001      0.23448     13.06298         0.035974     -0.217311     -0.161117
Pb       3.88080      7.71595      4.29276        -0.235311     -0.076528     -0.153897
Pb       3.82373      7.74204      0.02230        -0.053315     -0.336631     -0.427044
Pb      15.26450      7.73605      4.25794         0.100038      0.561920      0.327268
Pb       0.03370      7.55693     17.36748         0.063676      0.451324     -0.311657
Pb       3.76991      7.80649      8.55792        -0.103438      0.192953     -0.016890
Pb      15.20461      8.06055      8.57557         0.804447     -0.591259      0.337442
Pb       3.91984      7.81303     12.98228        -0.101217     -0.095534      0.562523
Pb      15.33228      7.94757     13.04820         0.000565      0.033496      0.274155
Pb       3.87251     11.52760      4.32221        -0.230909      0.408030      0.394729
Pb       3.89658     11.51744     17.40258        -0.270413      0.151214     -0.315085
Pb       0.01383     11.45741      4.28072        -0.305855      0.481396      0.685511
Pb       0.12129     11.46248     17.39706        -0.356666     -0.166526     -0.293745
Pb       3.68328     11.53845      8.65284         0.259364     -0.072603     -0.174423
Pb      15.20935     11.76852      8.55373         0.524506     -0.081435      0.119674
Pb       3.91500     11.51705     13.01824         0.011921     -0.171281      0.100964
Pb      15.29819     11.69730     12.99174         0.372126      0.046918      0.886314
Pb       7.57313      3.78253      4.34262         0.039376      0.265328     -0.129909
Pb       7.56953      3.97211      0.03163        -0.022419      0.270145     -0.105785
Pb       7.50291      0.17398      4.38686         0.102376     -0.398477     -0.344349
Pb       7.64051     15.45744     17.41943         0.168832     -0.167816     -0.184482
Pb       7.73670      3.94678      8.67322        -0.179546      0.242836     -0.053920
Pb       7.75119      0.18506      8.76172        -0.246122      0.094943      0.014831
Pb       7.73389      3.87777     13.02211        -0.145811      0.077959      0.419259
Pb       7.67995     15.30994     13.13662         0.090501      0.527775     -0.406397
Pb       7.58515      7.72613      4.35210         0.577980     -0.215114      0.037064
Pb       7.73259      7.73637      0.16102         0.042767     -0.381397     -0.764974
Pb       7.66245      7.93989      8.55707         0.234880     -0.826088      0.637177
Pb       7.61774      7.75089     13.03470         0.111803      0.319690      0.363689
Pb       7.64484     11.75165      4.43789        -0.067190      0.365682     -0.459945
Pb       7.65453     11.58834      0.07670         0.127893      0.251553     -0.454137
Pb       7.61323     11.70046      8.65499         0.020924     -0.379770      0.510949
Pb       7.69631     11.50233     13.07558        -0.163039     -0.255825     -0.146355
Pb      11.56249      3.93370      4.25660        -0.428194      0.089664      0.639753
Pb      11.38133      3.86061     17.36594         0.315141      0.142081      0.304627
Pb      11.49187      0.23532      4.35804         0.197708     -0.212930     -0.056125
Pb      11.42781     15.39290     17.38637         0.324737     -0.002517      0.235054
Pb      11.51988      3.96374      8.74702        -0.076641      0.359364     -0.380539
Pb      11.60373      0.20832      8.72680        -0.281284     -0.360631      0.361896
Pb      11.43467      3.80574     13.06286         0.135505      0.565322      0.118912
Pb      11.50767     15.40870     13.08296         0.206317     -0.383803     -0.376262
Pb      11.56916      7.78213      4.26228        -0.183257     -0.161922      0.125356
Pb      11.52782      7.72201      0.03110         0.010939      0.381139     -0.568924
Pb      11.50496      7.89493      8.53756        -0.757959     -0.438935      0.429219
Pb      11.35984      7.74039     13.10119         0.751462      0.237574      0.291244
Pb      11.55713     11.77137      4.23117         0.023303     -0.123101      0.166954
Pb      11.55036     11.49394      0.04255         0.001317      0.227137     -0.157792
Pb      11.46840     11.65489      8.66438        -0.094030      0.223696      0.224375
Pb      11.49833     11.54098     13.06715         0.275950      0.327355      0.215879
Ti       1.92509      1.99456      2.19605        -0.288271     -0.037575     -0.716050
Ti       1.89667      1.97501     15.27507        -0.303109     -0.879915     -0.835316
Ti       1.92902     13.50397      2.41937        -0.037874      0.626907     -0.293868
Ti       1.87194     13.43240     15.34009         0.096298     -0.769868     -0.918603
Ti      13.43926      2.10752      2.26135        -0.522067     -0.794150     -0.619083
Ti      13.41557      2.08736     15.32161         0.408588     -0.136335     -0.793307
Ti      13.49472     13.67671      2.37000        -0.375741      0.378383     -2.018967
Ti      13.40435     13.55557     15.48109        -0.358431     -0.382114     -1.931355
Ti       1.86548      1.99487      6.81629        -0.526973      0.234120     -2.004492
Ti       1.91928     13.53068      6.70278        -0.397874     -0.780256     -1.328294
Ti      13.41251      2.12036      6.71328         0.043874      0.308682     -1.217143
Ti      13.35236     13.65306      6.69017         0.782715      0.200499      0.143250
Ti       1.90131      1.86905     11.10270        -0.538258      0.928405      0.097051
Ti       1.94851     13.37431     11.06338         0.219587     -0.109880     -0.357976
Ti      13.42704      2.11047     11.09001         0.341106     -0.658239     -0.709225
Ti      13.45510     13.56612     11.07462        -1.040964      0.522535     -1.313219
Ti       1.91669      5.81341      2.29884         0.348021     -0.414765     -1.529384
Ti       1.86270      5.75484     15.23673         0.903064      0.846368      0.395117
Ti      13.44762      5.84670      2.23608         0.080416      0.118208      0.418317
Ti      13.39313      5.89442     15.32842        -0.392452      0.856164     -0.685563
Ti       1.88135      5.78646      6.61551        -0.439439      0.470432      0.428719
Ti      13.42603      5.92757      6.61207        -0.687029     -0.261465     -0.826420
Ti       1.99121      5.78813     11.05873        -0.179577     -0.051076      1.349022
Ti      13.44388      5.95675     11.08025        -0.149898      0.039272     -0.600640
Ti       1.93811      9.66532      2.31508        -0.069065     -0.657949     -0.022502
Ti       2.02587      9.57314     15.38463        -1.142203      0.513254     -1.766399
Ti      13.45236      9.73733      2.36718        -0.263908      0.387579     -1.049147
Ti      13.48891      9.73974     15.47864         0.075279      0.127590      0.008288
Ti       1.89295      9.61410      6.45856        -0.033025      0.412344      0.972441
Ti      13.36373      9.75121      6.57331         0.743777      0.765017     -2.137038
Ti       1.91368      9.57444     11.06996         0.641900      0.499347     -0.863548
Ti      13.49425      9.74976     10.95697        -0.780135      0.202171      0.654410
Ti       5.66313      1.92307      2.21811         0.674044      0.999868      0.325392
Ti       5.74517      1.99952     15.41137         0.276257      0.380166     -0.314554
Ti       5.72623     13.50248      2.33260        -0.165403      0.423051     -0.037051
Ti       5.69894     13.49540     15.33212         0.687891     -0.626157     -0.306652
Ti       5.65639      2.01408      6.77097         0.525524     -0.032308     -0.957646
Ti       5.77528     13.58178      6.74255        -1.258820     -0.074126     -0.347272
Ti       5.78679      1.99052     11.10188         0.792144      0.729257     -1.276845
Ti       5.76712     13.55756     10.96467         0.063206     -0.642337      0.033448
Ti       5.80769      5.83391      2.45358        -1.468135     -1.273834     -2.446307
Ti       5.69559      5.88759     15.46359         0.691221     -0.079040     -1.703977
Ti       5.72283      5.82468      6.72086         0.989650      0.083520     -1.293548
Ti       5.87926      5.92515     11.00492        -0.823056     -1.060446     -1.320136
Ti       5.79925      9.71510      2.30266        -0.519342      0.106476     -1.391088
Ti       5.82503      9.63067     15.53457        -0.245621      0.382155     -1.914608
Ti       5.78118      9.71192      6.63209        -1.058515      0.210025      0.359021
Ti       5.79636      9.68487     10.92644         0.248410     -0.140941     -0.694296
Ti       9.56256      1.96106      2.35587         0.264467      1.415210     -2.068039
Ti       9.56522      1.99605     15.48170        -0.284524      0.223540     -1.623269
Ti       9.55337     13.55830      2.39385         0.249703      0.374521     -0.713022
Ti       9.52439     13.45144     15.39782         0.554421     -0.356029      1.417368
Ti       9.58893      2.00679      6.68864        -0.106753      0.649031      0.023792
Ti       9.56720     13.56644      6.68363         0.079734      0.861101     -1.859852
Ti       9.60418      1.97214     11.11584        -0.424215     -0.401902     -0.986928
Ti       9.57483     13.49827     11.05847         0.983752     -0.007897     -0.813812
Ti       9.62860      5.83814      2.32492         0.196288     -0.388137     -0.888372
Ti       9.55672      5.84019     15.39839        -0.019962      1.160488     -0.460270
Ti       9.59351      5.91385      6.65176        -0.051292     -0.152674     -0.929519
Ti       9.66645      5.90417     11.06240        -0.025963      0.018836     -1.475660
Ti       9.56484      9.69368      2.37864         0.849057      0.022957      0.074187
Ti       9.56396      9.66167     15.50433         0.942745     -0.039402     -1.248193
Ti       9.54974      9.79143      6.47049         0.205606     -0.878709      0.788655
Ti       9.66853      9.68594     11.03893        -0.363467      0.781916     -1.386751
O       2.00349      2.03234      0.37535        -0.250026     -0.429486      1.195432
O       1.83367      1.86594     13.44366         0.223970     -0.218395      1.278970
O       1.95905     13.53105      0.63889         0.021938      0.009759      0.578760
O       1.82908     13.37780     13.56857         0.252926      0.315153      0.307629
O      13.36351      2.04164      0.49202         0.157446      0.352381      0.088650
O      13.55446      2.21490     13.46603        -0.628780     -0.515054      1.795824
O      13.54138     13.76060      0.48672        -0.378057     -0.372460      1.506976
O      13.35558     13.45017     13.60157         0.280169      0.632901      1.473622
O       1.85946      2.04068      4.94100        -0.002656      0.023623      1.441397
O       1.94239     13.58754      4.86633        -0.079518      0.130608      1.264674
O      13.29968      2.08533      4.85870         0.586217     -0.193982      1.391130
O      13.37421     13.76592      4.94266         0.005906     -0.237993     -0.182890
O       1.87781      1.95035      9.30126         0.189597     -0.094177     -0.009083
O       2.16863     13.34450      9.21829        -0.914967      0.392287      1.552099
O      13.43142      2.11759      9.26917         0.012550     -0.143847      0.064430
O      13.31849     13.54910      9.21240         0.484169      0.247018      1.252718
O       1.88261      5.71268      0.46725         0.060086      0.282499      1.070680
O       1.86471      5.88522     13.48429         0.295174     -0.590304      0.216414
O      13.46242      5.91059      0.46443         0.083860     -0.268266      0.466778
O      13.51555      6.08995     13.51970        -0.171035     -0.745792      1.234459
O       1.78527      5.84655      4.87326         0.388519     -0.495901     -0.471634
O      13.43327      6.06937      4.80231         0.246331     -0.295381      0.791219
O       2.06450      5.72002      9.29990        -0.327561      0.133847     -0.013030
O      13.37103      5.83623      9.27615         0.087890      0.210127      0.280049
O       2.02369      9.64736      0.50719        -0.196301      0.129540      1.299024
O       1.86925      9.60427     13.54859         0.490679     -0.095625      1.072541
O      13.41842      9.84375      0.51087         0.230955     -0.323596      1.752728
O      13.56771      9.65474     13.71152        -0.121404      0.458726      0.084666
O       1.99189      9.65425      4.69330        -0.356856     -0.212842      0.560346
O      13.48824      9.74848      4.66907        -0.487976     -0.166576      2.715256
O       1.92197      9.62981      9.26802        -0.020530     -0.168096      0.617926
O      13.45676      9.82855      9.16624        -0.121981     -0.176121      0.258151
O       5.61925      2.09547      0.46080         0.246575     -0.368256     -0.323516
O       5.94051      1.96359     13.64084        -0.389689      0.168744      0.344282
O       5.70198     13.41689      0.57385         0.007258      0.122638     -0.239776
O       5.89554     13.42456     13.55254        -0.599246      0.280952      0.885838
O       5.65758      2.05611      4.92263         0.282435     -0.210250      1.142625
O       5.79144     13.60900      4.91914         0.123279     -0.064242      0.897312
O       5.79351      2.05252      9.28654        -0.078810     -0.168573      0.898512
O       5.69636     13.52132      9.15323         0.133455      0.083044      1.587459
O       5.57266      5.64872      0.55173         0.725581      0.829231      1.393169
O       5.82359      5.90198     13.59451        -0.099992     -0.129054      1.640444
O       5.75717      5.84851      4.83669         0.202943      0.113356      0.519687
O       5.75342      5.85320      9.15816        -0.197870      0.110001      0.966849
O       5.70963      9.73598      0.42435        -0.083249     -0.019659      1.701521
O       5.96270      9.76318     13.63988        -0.287341     -0.714282      1.669845
O       5.77118      9.76974      4.85713         0.226217     -0.305168     -0.176204
O       5.84660      9.69821      9.08824        -0.247226     -0.475556      1.221157
O       9.72045      2.05442      0.42385        -0.429497     -0.231402      1.338914
O       9.53974      1.98332     13.60256         0.240913      0.285027      1.293314
O       9.61074     13.59840      0.56899        -0.338061      0.262169      0.909663
O       9.64474     13.38954     13.67936        -0.193281      0.451226     -0.675483
O       9.71876      2.02538      4.90379        -0.793564      0.008946      0.742469
O       9.51808     13.61824      4.77007        -0.145512     -0.123644      2.136544
O       9.56604      1.93942      9.26854        -0.021617      0.390027      1.069077
O       9.60250     13.54414      9.26275        -0.105084     -0.203181      0.198498
O       9.69120      5.82634      0.46499        -0.058878      0.057407      1.849443
O       9.60512      5.90277     13.57913        -0.274406      0.091790      0.231803
O       9.54625      5.88559      4.86169        -0.145878      0.110661      0.275226
O       9.72563      5.91419      9.25211         0.028238     -0.238853      0.899430
O       9.72714      9.71318      0.61929        -0.215061     -0.145731     -0.196892
O       9.51297      9.72699     13.64802         0.259009     -0.362831      1.483002
O       9.41805      9.70532      4.69569         0.182667      0.309846      0.842345
O       9.67390      9.86362      9.19941        -0.084963     -0.430617      1.400404
O       3.83478      1.93622      2.68727        -0.701560      0.257450      0.022848
O       3.78821      1.98620     15.54222         0.833184     -0.816868      0.291464
O       3.87544     13.61882      2.85596        -0.954889     -0.389867     -0.416599
O       3.78845     13.59161     15.71646         1.010618     -0.520495     -0.035728
O      15.33360      2.17458      2.64324         0.482470      0.503836     -0.029111
O       0.00752      1.93460     15.73816        -0.056502     -0.080732     -0.094748
O      15.32288     13.72007      2.81436         0.663557     -0.065678     -0.083705
O      15.35672     13.63575     15.80253        -0.007685     -0.324470      0.071452
O       3.74178      1.99128      7.10344         1.229658      0.137847      0.362239
O       3.78987     13.42394      7.09707         0.445380      0.476136     -0.375335
O      15.30443      2.17642      7.13292         0.288195      0.044340      0.079905
O      15.29797     13.66288      7.12668         0.509521      0.284373     -0.070446
O       3.94410      1.92315     11.50919        -0.744957      0.328473     -0.141110
O       3.90932     13.47363     11.54704        -0.010499      0.139701     -0.479269
O      15.32736      2.06946     11.46209         0.923744      0.001758     -0.392445
O       0.03936     13.46631     11.36116         0.194695     -0.532726     -0.203869
O       3.86008      5.83504      2.71347        -0.711801      0.220477      0.414810
O       3.80682      5.91262     15.70021        -0.212635     -0.404841      0.037580
O      15.35817      5.90169      2.74669        -0.170598     -0.129215     -0.473791
O       0.01115      5.75864     15.65456        -0.011188     -0.214135      0.409660
O       3.81969      5.79751      6.93474        -0.463991      0.053568      0.386977
O      15.28156      5.98459      7.05921         0.670690     -0.121084      0.243926
O       3.93723      5.85865     11.55307        -0.966404     -0.700310     -0.628167
O      15.33891      5.93577     11.39282         1.139762     -0.153701     -0.342634
O       3.82589      9.64471      2.74467        -0.058936      0.285762     -0.316220
O       3.88175      9.58347     15.73689         0.487680      0.123711      0.319705
O      15.35547      9.87396      2.83931         0.534771     -0.324830     -1.276786
O       0.07536      9.63189     15.88566        -0.420826     -0.346513      0.047801
O       3.77039      9.54603      6.90132        -0.007915      0.431095      0.054230
O      15.32634      9.77085      7.05228        -0.519723      0.456694     -0.698356
O       3.94318      9.64089     11.33558        -0.456988     -0.346119      0.189869
O       0.05905      9.67053     11.46920        -0.969027     -0.430298     -0.680275
O       7.60313      2.08977      2.63328         0.378189     -0.139094      0.259041
O       7.71238      2.14830     15.91790        -0.844418     -0.139554     -0.167768
O       7.58874     13.54529      2.77093         0.976580     -0.221552     -0.080066
O       7.59223     13.36620     15.77755         0.642305      0.546184      0.244117
O       7.62298      2.04184      7.09362         1.096038      0.175960     -0.202016
O       7.60763     13.45379      7.08750         1.185038      0.556794     -0.195460
O       7.72589      1.89644     11.54343        -0.093241      0.567269     -0.348458
O       7.72618     13.41876     11.37886        -1.349178      0.436385     -0.011104
O       7.66188      5.97086      2.54724         0.733473     -0.539318      0.449895
O       7.67112      5.95923     15.90751        -0.329607     -0.652545     -0.100505
O       7.64322      5.90289      6.99895         0.316336     -0.058688      0.278038
O       7.72827      5.98959     11.28343         0.728800     -0.168323      0.317491
O       7.65706      9.72450      2.47245         0.073749      0.178064      0.536082
O       7.74554      9.57315     16.02011        -0.602313      0.603796     -0.156676
O       7.64057      9.66780      7.05083         1.055799      0.760073     -0.855685
O       7.77799      9.57188     11.46347        -0.541060      0.343837     -0.644768
O      11.44513      2.03373      2.71797         0.694916     -0.154387     -0.110490
O      11.51274      2.07771     15.63557        -0.011588     -0.055074      0.174839
O      11.53367     13.71483      2.83382        -0.268594     -0.165969     -0.661575
O      11.50044     13.58761     15.81888        -0.439177      0.214804     -0.029352
O      11.53268      2.05216      7.13667        -0.643084     -0.178955     -0.030659
O      11.43003     13.69809      7.08462         0.344400     -0.218818     -0.270836
O      11.50374      1.95173     11.41564        -0.313620      0.474924      0.368535
O      11.53696     13.55772     11.41477        -0.090254      0.166155      0.381545
O      11.54842      5.91509      2.72992        -0.081835     -0.079960     -0.465706
O      11.52483      5.88652     15.55623         0.660040      0.187486      0.582796
O      11.51667      6.02277      6.94137        -0.248808     -0.066826      0.410447
O      11.60886      5.95996     11.52831        -0.751107     -0.540521     -0.078519
O      11.52629      9.74184      2.73900         0.185549      0.006572     -0.040318
O      11.53663      9.74646     15.83961        -0.376558     -0.146320      0.050224
O      11.48359      9.79475      6.94179        -0.236719     -0.073220     -0.410527
O      11.61382      9.73480     11.48796        -0.184040      0.134243     -0.374302
O       1.95967      3.88118      2.63524        -0.079705     -0.418597      0.376942
O       1.97880      3.82476     15.60674        -0.477231      0.939247     -0.188606
O       1.84386      0.18133      2.80894         0.399748     -1.097136     -0.393005
O       1.88681     15.30336     15.78711        -0.080577      1.106490     -0.313549
O      13.39591      3.95121      2.78446         0.173178      1.045578     -0.614135
O      13.46252      3.96439     15.85907        -0.124060      0.683046     -0.778274
O      13.49169      0.23383      2.62647        -0.246413     -0.203086      0.621120
O      13.48690     15.55061     15.67535        -0.134812      0.132642     -0.013951
O       1.90687      3.91129      7.15959        -0.223856      0.159381     -0.051792
O       1.97976      0.08394      7.08848        -0.535309     -0.585741      0.377414
O      13.33675      4.06538      6.88464         0.128853     -0.502600      0.558463
O      13.50875      0.20901      7.14193        -0.506081      0.047922      0.019687
O       1.92890      3.75995     11.53157         0.307447      1.275202     -0.510789
O       1.93485     15.32754     11.37891         0.525259     -0.129523      0.073936
O      13.45993      3.93138     11.38595        -0.287070      1.659391      0.280857
O      13.43802     15.54562     11.48640        -0.012094     -0.878350      0.055971
O       1.90246      7.67149      2.57896        -0.125307      0.860564      0.203175
O       1.99963      7.75041     15.74373        -0.785210     -1.689752      0.404445
O      13.48110      7.78099      2.64797        -0.090923      0.535749     -0.351886
O      13.46446      7.86032     15.88520         0.073920     -1.036008     -0.049414
O       1.78527      7.69879      7.01978         0.615417     -0.121442     -0.112976
O      13.35351      7.87408      7.05802         0.525192      0.709882     -0.246304
O       1.98512      7.72504     11.47414        -0.176094     -1.000284     -0.598815
O      13.53720      7.91847     11.40448         0.037149     -0.283326     -0.559119
O       1.86920     11.63861      2.79187         0.509404     -0.784140     -0.575553
O       2.00459     11.46294     15.76736        -0.085713      1.535894      0.414123
O      13.42763     11.73332      2.76221        -0.062034      0.233834     -0.318357
O      13.41459     11.66671     15.85286         0.253122      0.613218      0.088877
O       1.81102     11.54828      6.96022         0.390587     -0.606734     -0.112646
O      13.36623     11.69384      7.00969         0.097820     -0.187470     -0.286448
O       2.04744     11.46442     11.57162        -0.376869      1.191765     -0.873776
O      13.43378     11.71043     11.43193         0.338798     -0.755891     -0.239894
O       5.75313      3.90559      2.73106        -0.077642      0.217902      0.318563
O       5.62990      3.95690     15.78471         0.652587     -0.404428     -0.226129
O       5.80591      0.09151      2.61635        -0.063100     -0.003746      0.130330
O       5.88005     15.43578     15.75406        -0.377188     -0.087653      0.015476
O       5.82250      3.90553      7.10239        -0.608688      0.422392      0.023485
O       5.84749      0.13077      7.18556        -0.761510     -0.413471     -0.447608
O       5.97431      3.99352     11.46875        -0.852907     -0.739668     -0.113054
O       5.82560      0.09099     11.48144        -0.021599     -1.048116     -0.314157
O       5.77109      7.84235      2.66632        -0.208975     -0.499491      0.331263
O       5.77814      7.77485     15.87190        -0.077028     -0.535394      0.254460
O       5.73022      7.76185      7.01341         0.048973      0.112843     -0.086781
O       5.76679      7.74340     11.49490         0.263136      0.698363     -0.526160
O       5.71867     11.60284      2.80894         0.031534     -0.244358     -0.312577
O       5.68760     11.52702     15.81261         0.164308      1.056736      0.083403
O       5.77602     11.59757      7.12229        -0.338026     -0.166341     -0.734364
O       5.77182     11.49061     11.32829         0.391644      1.289490     -0.047200
O       9.64866      3.89910      2.74383        -0.608334      1.201109     -0.200515
O       9.64124      4.05453     15.78247        -0.272949     -1.727582     -0.032962
O       9.45193      0.18947      2.71729         0.166935     -1.151955      0.102163
O       9.44361     15.48647     15.76586         0.246653     -0.798643      0.007857
O       9.65378      4.03236      7.12043        -0.250168     -0.985677     -0.098561
O       9.51306     15.48746      7.12060        -0.027332      0.122965     -0.329042
O       9.64415      3.96439     11.50298        -0.108035     -0.337706     -0.488321
O       9.59331     15.40836     11.49600         0.043295      0.037274      0.157042
O       9.60077      7.74778      2.70566        -0.073405      0.400950     -0.096894
O       9.65903      7.74930     15.92962         0.003787      0.482385     -0.111224
O       9.56918      7.88594      6.96376         0.067778      0.445555     -0.027752
O       9.77496      7.80785     11.31886        -0.278951     -0.199555      0.375900
O       9.64933     11.70483      2.67039        -0.304222     -0.541284      0.237616
O       9.58521     11.57439     15.90376        -0.119073      0.332060     -0.082651
O       9.60156     11.71665      6.97841        -0.244998     -1.073739     -0.269863
O       9.64464     11.60432     11.54336         0.104535     -0.296572     -0.453643
