  # total energy = -7882.37097480 
CRSYTAL
PRIMVEC
    15.3600000000000000    0.2300000000000000    0.0000000000000000
     0.0000000000000000   15.3600000000000000    0.0000000000000000
     0.0000000000000000    0.0000000000000000    17.440000000000000
PRESSURE
2.20444 2.42526 1.04416 0.01724 0.050951 -1.60279
PRIMCOORD
320 1
Pb       3.73890      3.84670      4.31888         0.382736      0.321634      0.897482
Pb       3.85267      3.90991     17.34699        -0.462533     -0.366346      0.167530
Pb       3.73157      0.08359      4.27590         0.334952     -0.139211      0.776942
Pb       3.78648     15.41244     17.21331        -0.251780     -0.010421      1.253494
Pb      15.27902      4.02764      4.37010        -0.024912      0.234855      0.362073
Pb      15.29367      4.09189     17.31562         0.267765     -0.415737     -0.151583
Pb       0.00402      0.06886      4.24586        -0.043920     -0.735836      1.135748
Pb       0.02428     15.31882     17.32561        -0.367722      0.055360      0.423066
Pb       3.79033      4.03658      8.72668        -0.045369     -0.524150     -0.018614
Pb       3.75277     15.40229      8.70576        -0.346655      0.379975      0.437258
Pb      15.33671      4.05820      8.81290         0.055582      0.207163     -0.159761
Pb      15.23166      0.31877      8.72253         0.932249     -0.404239      0.393793
Pb       3.84811      3.95214     13.05832         0.281315     -0.245332      0.105837
Pb       3.85463     15.38889     12.96362         0.536640     -0.024170      0.868372
Pb      15.33446      4.05057     13.02817        -0.303031      0.180257      0.687401
Pb      15.31771     15.49215     13.00188        -0.448453      0.956873      1.279508
Pb       3.83855      7.71553      4.22175         0.042424     -0.021555      1.392891
Pb       3.85108      7.66223      0.00334         0.093391      0.041861      0.482722
Pb       0.02849      7.62125      4.23525        -0.455977      0.511581      1.197770
Pb       0.06087      7.52000     17.40368        -0.447993      0.321788     -0.351555
Pb       3.84162      7.83266      8.59852         0.014048     -0.075155      0.518116
Pb      15.33413      7.97165      8.55339        -0.667332     -0.100643      0.935257
Pb       3.90305      7.77158     13.07629         0.304753      0.065975      0.089662
Pb      15.31731      7.93388     13.02204        -0.137918     -0.146476      0.396312
Pb       3.83297     11.57490      4.38509        -0.138969      0.049356     -0.327532
Pb       3.89760     11.51069     17.37207        -0.187417      0.267619      0.540730
Pb      15.33868     11.68857      4.30511        -0.173978      0.287926      0.293603
Pb       0.01580     11.45385     17.31446        -0.535644      0.386610      0.603711
Pb       3.78173     11.55898      8.66269         0.083665      0.597469      0.851659
Pb      15.28509     11.75166      8.62495        -0.219620      0.141693      0.678000
Pb       3.93252     11.56953     13.06116         0.111946     -0.093755      0.461622
Pb      15.27888     11.77704     12.98222         0.181733     -1.011403      1.043478
Pb       7.64443      3.87063      4.32757         0.129230      0.134450      0.547321
Pb       7.64579      3.95872      0.01385         0.053577     -0.296206      0.090501
Pb       7.62203      0.16727      4.29778         0.156465     -0.327624      0.737065
Pb       7.61373     15.35750     17.37890         0.286790      0.606703      0.640104
Pb       7.78501      3.92080      8.70594        -0.598287      0.217286      0.448516
Pb       7.74001      0.19290      8.69754        -0.144003     -0.316192      0.419246
Pb       7.73030      3.92944     13.04263        -0.324100     -0.132704      0.306453
Pb       7.69949     15.43791     13.03352        -0.107133      0.459463      0.367532
Pb       7.56188      7.78085      4.23910         0.389682     -0.388458      1.127631
Pb       7.70450      7.68604      0.01517        -0.874314      0.445601      1.112045
Pb       7.58129      7.84563      8.57606         0.501129     -0.115149      0.690088
Pb       7.66059      7.70983     13.03394        -0.168060      0.241255      0.547434
Pb       7.62382     11.63274      4.31984         0.447357     -0.188841      0.241087
Pb       7.67620     11.66669      0.00401         0.116769     -0.578965      0.244112
Pb       7.67254     11.64164      8.54084         0.011098      0.564758      1.291421
Pb       7.65270     11.49431     12.92388         0.130083      0.225277      1.265423
Pb      11.54412      3.91179      4.17453         0.272172      0.679765      0.842496
Pb      11.41598      3.91434     17.27248         0.365528      0.581996      1.318210
Pb      11.41317     15.50148      4.37608         0.661569     -0.013141     -0.026193
Pb      11.49781     15.48723     17.29605         0.154707     -0.327925      1.684022
Pb      11.52011      4.02424      8.67059         0.498597      0.347473      0.587147
Pb      11.52476      0.17456      8.68127        -0.106051     -0.288677      0.868647
Pb      11.45398      3.85433     13.02637         0.108601      0.828685      0.472127
Pb      11.45739     15.44511     13.08752         0.156820      0.169590      0.080198
Pb      11.62258      7.70702      4.28059        -0.245433      0.303373      0.445016
Pb      11.51307      7.76815     17.42100         0.325186     -0.150219      0.488601
Pb      11.44242      7.88994      8.55840         0.514501     -0.055574      0.909492
Pb      11.41863      7.77460     13.05785         0.050738      0.315388      0.223571
Pb      11.44566     11.84027      4.27613         0.542032     -0.503061      0.928108
Pb      11.52054     11.49074      0.06674         0.417107      0.623527      0.219575
Pb      11.50318     11.66386      8.69766         0.393775      0.189230      0.286273
Pb      11.50763     11.58749     13.07867        -0.469214     -0.283263      0.367321
Ti       1.94800      1.98320      2.41305        -0.184137     -0.020623     -0.974102
Ti       1.88626      1.92061     15.31438        -0.297064      0.800067      0.531956
Ti       1.95270     13.46492      2.32173        -0.741727      0.148355      0.240200
Ti       1.90202     13.45265     15.38717        -0.309606     -0.747192     -0.841935
Ti      13.50918      2.09482      2.24985        -0.661724      0.134389     -0.011350
Ti      13.38862      2.11425     15.40599         0.187368     -0.502882     -0.480940
Ti      13.47057     13.66984      2.32127         0.172614     -0.129237     -0.479216
Ti      13.37103     13.62240     15.42639         0.588941     -0.321596     -0.114096
Ti       1.94772      1.98807      6.73706        -0.816493     -0.756276     -0.376990
Ti       1.85314     13.41454      6.64238         0.267695      1.465587      0.366997
Ti      13.46644      2.17630      6.77678         0.015932      0.127954      0.484305
Ti      13.47060     13.70813      6.64369        -1.079143     -1.148976      0.347938
Ti       1.94540      2.02132     11.17206        -0.690557     -0.543051     -1.041243
Ti       1.90875     13.51315     11.22450         0.096163     -1.193012     -1.396528
Ti      13.38312      2.11428     11.10606         0.902967     -0.605387     -0.698520
Ti      13.37806     13.58531     11.14036        -0.504835      0.050539     -0.944258
Ti       1.83789      5.77945      2.33821         1.586776      0.317384     -0.226441
Ti       1.94532      5.83835     15.31592        -0.499407     -0.907205      1.103395
Ti      13.47247      5.94531      2.26898        -0.607429     -0.271986     -0.304326
Ti      13.40531      5.97071     15.37352         0.191902     -0.536053      0.958288
Ti       1.88217      5.82808      6.75783        -0.788898     -0.592747      0.436397
Ti      13.41918      5.99633      6.74297         0.402043     -0.229478     -0.797987
Ti       1.92428      5.82319     11.10995        -0.513531     -0.174313      0.002234
Ti      13.43806      5.98519     11.06159        -1.040359      0.252560     -0.248577
Ti       1.90471      9.69159      2.36309        -0.156823     -0.437561      2.611233
Ti       1.89947      9.64932     15.41570         0.234614     -0.537178     -1.094377
Ti      13.43265      9.87952      2.36047         0.031067     -0.965784     -0.293607
Ti      13.43488      9.78016     15.46275        -0.559992     -0.441415     -1.182898
Ti       1.85096      9.62721      6.70092        -0.442252      0.422790     -1.250859
Ti      13.37241      9.83701      6.57959         0.226433      0.153050     -0.173098
Ti       1.98651      9.63304     11.08248        -0.910194      0.480553     -0.656946
Ti      13.39300      9.72910     11.09121        -0.297348      0.432920     -1.123653
Ti       5.78485      1.95881      2.31210        -0.735409      0.300719     -0.355279
Ti       5.73772      1.90650     15.36826        -0.327013      1.022766     -0.318286
Ti       5.79875     13.54392      2.33598        -0.686707     -0.460450     -0.529243
Ti       5.78453     13.49891     15.46702        -0.189131     -0.966621     -0.865011
Ti       5.79769      2.05748      6.75986        -0.700373     -0.521119     -0.240661
Ti       5.66664     13.61339      6.76791         0.751661      0.469802     -0.122825
Ti       5.75442      2.04472     11.08829         0.539694     -0.343305     -0.030455
Ti       5.79473     13.53001     11.05714        -0.020691     -0.395639      0.205254
Ti       5.66819      5.71603      2.37319         0.597733      1.286589     -0.728774
Ti       5.77519      5.78656     15.44821        -0.567222      0.116876      0.681315
Ti       5.75020      5.84196      6.64609        -0.062944      0.009284     -0.253906
Ti       5.75187      5.80847     10.88872         0.135746      0.250126      0.303857
Ti       5.73667      9.68843      2.42672        -0.041258     -0.900339     -1.294984
Ti       5.74365      9.63815     15.58451         1.090129     -0.445623     -1.907979
Ti       5.72259      9.74508      6.66378        -0.130642     -0.459024     -0.187501
Ti       5.79620      9.63693     10.93662         1.103888      0.585882      0.159665
Ti       9.62544      2.04713      2.26896         0.277263      0.266629     -0.905980
Ti       9.52888      1.94851     15.45942         0.097121      1.129495     -1.253919
Ti       9.59400     13.57368      2.31167         0.692056      0.081000      0.795732
Ti       9.68648     13.48158     15.48217        -1.130543     -0.141843      1.675817
Ti       9.62968      2.20658      6.69512         0.536753     -1.443803      0.772033
Ti       9.60404     13.63081      6.77797         0.203166     -0.105602     -0.229385
Ti       9.60744      2.07783     11.02287        -1.001653     -0.497110      0.062366
Ti       9.56542     13.53835     11.14680         0.431097      0.057057     -1.803572
Ti       9.56079      5.88550      2.39088        -0.009692     -1.096134      0.623091
Ti       9.54631      5.88865     15.44148         0.141273     -0.265623      0.707339
Ti       9.53674      5.89683      6.65393         1.047527      0.947966     -0.696264
Ti       9.55973      5.87659     10.96626         0.548308      0.517826      1.870111
Ti       9.66414      9.69035      2.41051        -1.015154     -0.147937      0.738326
Ti       9.60225      9.68459     15.64561        -0.489577     -0.015362     -1.977710
Ti       9.55858      9.73650      6.67340         0.989405      0.043749     -0.279039
Ti       9.58481      9.68678     10.97595         0.434050     -0.057214     -0.463827
O       1.92693      1.89695      0.66004        -0.036389      0.279864      0.115922
O       1.89508      1.89613     13.59691         0.338730      0.245267     -0.758290
O       1.83506     13.56636      0.57447         0.310955     -0.463834      0.035532
O       1.88972     13.42128     13.60467         0.098619     -0.074191      0.704191
O      13.63246      2.16651      0.50500        -0.362088     -0.407765      0.255274
O      13.20592      1.93488     13.64685         0.200694      0.605081      0.484995
O      13.44472     13.66861      0.55242         0.254443      0.012959      0.568817
O      13.31126     13.64037     13.64129         0.141289     -0.413019      0.742223
O       1.99316      1.98220      4.90967        -0.238165     -0.020784      0.839614
O       1.95593     13.40711      4.87425         0.065723      0.132616      0.504924
O      13.47022      2.15652      5.03545        -0.056623      0.080198     -0.508626
O      13.35420     13.59315      4.87514         0.108367      0.454952      0.978982
O       1.85166      1.87850      9.40061        -0.057331      0.325182      0.892918
O       1.72693     13.41711      9.46005         0.512576      0.287139      1.146693
O      13.53176      2.11386      9.28365        -0.427203      0.135093      1.800404
O      13.48602     13.57424      9.35695        -0.116063     -0.047677      1.168888
O       2.03228      5.88523      0.56386        -0.856224     -0.276478      0.576575
O       2.01202      5.73165     13.59313        -0.145709      0.382209     -0.580595
O      13.57854      5.93767      0.49684        -0.048194      0.148199      0.451549
O      13.46494      5.88706     13.66781        -0.345116      0.258108     -0.909865
O       1.75392      5.75354      5.05224         0.265797     -0.019676     -0.572086
O      13.53521      5.86138      4.94664        -0.328489      0.086844      0.526764
O       1.84586      5.85966      9.36857         0.256912      0.012152     -0.473703
O      13.47950      6.14230      9.29456        -0.109162     -0.423882      0.621133
O       1.88940      9.69320      0.69023         0.079918     -0.197196     -2.274430
O       2.12847      9.61686     13.66565        -0.402128     -0.223679      0.069917
O      13.43545      9.73349      0.58660         0.052430      0.129539      0.328957
O      13.24605      9.86155     13.66916         0.519554     -0.384194      0.932481
O       1.80265      9.52026      4.93281         0.509345      0.787163      0.639087
O      13.38997      9.80530      4.82759        -0.115364      0.167605     -0.347255
O       1.87263      9.71550      9.26906         0.416827     -0.344638      1.595446
O      13.34550      9.81779      9.30609         0.413736     -0.286906      0.773209
O       5.69197      1.92481      0.54593         0.092080      0.002260      1.024457
O       5.65968      2.02040     13.60526         0.229599     -0.257446      0.506350
O       5.80449     13.52287      0.54832        -0.153381      0.028874      0.996656
O       5.78245     13.40996     13.72094         0.023965      0.385651      0.172460
O       5.86449      1.99454      4.99096        -0.356606     -0.071695      0.174164
O       5.83420     13.59309      5.00732        -0.421889      0.002235      0.225712
O       5.88254      2.01040      9.34912        -0.280928      0.314787     -0.278855
O       5.79999     13.51361      9.32476        -0.000623      0.235006     -0.564973
O       5.73340      5.87927      0.53088        -0.278665     -0.820028      1.671951
O       5.69950      5.89888     13.70753         0.016784     -0.251671      0.157187
O       5.79389      5.85591      4.85247        -0.401317     -0.329986      1.824796
O       5.72539      5.91602      9.08783         0.096154     -0.399513      1.589979
O       5.69325      9.70625      0.62505        -0.008491      0.108538      0.358793
O       5.77818      9.47472     13.72419        -0.141979      0.506558      1.944663
O       5.72424      9.55960      4.89722        -0.083803      0.985129      0.778502
O       5.81822      9.70573      9.16445        -0.305079     -0.042679      0.430838
O       9.53007      2.02809      0.47745         0.000863      0.094029      0.950902
O       9.61530      2.03100     13.62529        -0.040459      0.015917      1.566354
O       9.61472     13.59061      0.58913        -0.321549     -0.040960     -0.227334
O       9.53726     13.53485     13.80665         0.157416      0.014960     -1.724574
O       9.59962      2.18812      4.96164         0.282496     -0.452869     -0.211666
O       9.64838     13.59883      4.97459         0.079165      0.287335      0.766846
O       9.55533      2.17873      9.22685         0.061024     -0.159152      0.917017
O       9.62621     13.57751      9.35754        -0.395536      0.058451      0.732228
O       9.46298      5.77872      0.63838        -0.070129      0.260985      0.147642
O       9.46237      5.91598     13.71382         0.213405     -0.158666     -0.053412
O       9.63226      5.92731      4.88001        -0.160387     -0.441388      1.064338
O       9.62676      5.85720      9.25717        -0.318898      0.160767     -0.921895
O       9.63952      9.65643      0.67111        -0.051063      0.094514     -0.469919
O       9.59929      9.60694     13.87336        -0.002167      0.219080      0.162936
O       9.65171      9.69277      4.93011        -0.304314      0.271600      0.327765
O       9.59401      9.61578      9.19615        -0.071208      0.284854      0.669650
O       3.83679      1.98990      2.88265         0.275247     -0.197761     -0.622562
O       3.82282      1.92882     15.81345        -0.449326     -0.279726     -0.287605
O       3.91224     13.40635      2.74858        -0.445500      0.268942     -0.110985
O       3.78841     13.37311     15.79134         0.112580      0.267884      0.014459
O      15.35922      2.09094      2.85077         0.057325      0.750091     -0.616793
O      15.27204      2.14619     15.69455         0.869627     -0.394162      0.118409
O       0.01368     13.39246      2.74675         0.502079      0.368803     -0.089433
O      15.27099     13.66935     15.81297         0.573423     -0.471739     -0.219599
O       3.70931      1.93474      7.28179         1.297493      0.530093     -0.428381
O       3.72328     13.58552      7.24379         0.794704     -0.061387     -0.706788
O      15.33035      2.15373      7.20550         0.354286      0.315050     -0.310884
O      15.31952     13.61282      7.10505         0.103633      0.209994     -0.487680
O       3.84814      2.02102     11.43585        -0.648230     -0.119855      0.173917
O       3.90276     13.32199     11.53299        -1.035051      1.004889     -0.384169
O      15.29438      2.14772     11.63268        -0.040759     -0.556740     -0.723860
O      15.29420     13.61761     11.68519         0.168758     -0.024391     -1.180463
O       3.81295      5.80270      2.85567        -0.077908     -0.141302     -0.607367
O       3.78071      5.81910     15.91446         0.635246     -0.004169     -0.677490
O       0.01409      5.76120      2.77073        -0.502681     -0.259286     -0.565213
O       0.00778      5.68577     15.79229         0.413746      0.513694     -0.075458
O       3.83436      5.99636      7.20347        -0.069040     -0.901430     -0.861981
O      15.30859      6.00984      7.23865         0.821548      0.046628     -0.232002
O       3.81200      5.67044     11.42975         0.861060      0.662184     -0.455842
O      15.25561      5.93832     11.50890         1.044088      0.376163      0.091314
O       3.78058      9.65735      2.85000         0.358328      0.250682     -0.281414
O       3.81716      9.65709     15.96292         0.434158     -0.007573     -0.395406
O      15.33818      9.86718      2.74083         0.024161     -0.352423     -0.098653
O      15.32069      9.83681     15.73139         0.438128     -0.314045      0.194333
O       3.81970      9.77591      7.14876         0.227689     -0.796557     -0.596568
O      15.28885      9.98129      6.92146         1.262501     -0.360713      0.652338
O       4.04179      9.70131     11.54148        -2.276997     -0.482923     -0.717364
O      15.30571      9.69092     11.50042         1.100920      0.758028     -0.258519
O       7.68716      2.01885      2.73391        -0.363000      0.084646     -0.264705
O       7.62529      1.89343     15.77681         0.286097      0.194191     -0.044642
O       7.69390     13.51013      2.80342        -0.150272      0.519575     -0.348931
O       7.64370     13.56632     15.97170         1.151669     -0.183195     -0.557780
O       7.68978      2.15481      7.11446         0.743163     -0.243203     -0.157518
O       7.63702     13.70744      7.21562         0.441428     -0.478626     -0.597398
O       7.68210      2.04103     11.49844         0.225653     -0.137467     -0.063155
O       7.69854     13.62982     11.66720        -0.368205     -0.699456     -0.829368
O       7.58299      5.67706      2.95847         0.449059      0.837573     -1.672206
O       7.60729      5.73396     15.92997         0.380305      0.395983     -0.499058
O       7.69036      5.83857      7.18739        -0.612119     -0.148376     -0.976898
O       7.62898      5.70380     11.54583        -0.391242      0.910274     -1.146719
O       7.63140      9.60751      2.87135         0.676038      0.892508     -0.661020
O       7.73717      9.69796     16.01421        -1.528040      0.167098      0.112216
O       7.67622      9.79158      7.10970        -0.542311      0.003777     -0.718356
O       7.74339      9.72949     11.38852        -1.237644     -0.662599      0.006223
O      11.53944      2.19998      2.63969         0.582802     -1.248909     -0.222827
O      11.48140      2.03391     15.99635        -0.088320      0.383242     -1.209488
O      11.54907     13.64542      2.68259        -0.856950     -0.086651      0.318463
O      11.52893     13.43026     15.94226        -0.260493      0.761313     -0.422834
O      11.56540      2.14265      7.26741        -0.734894      0.154703     -0.866938
O      11.54706     13.61104      7.32364         0.052529      0.138517     -1.188231
O      11.43649      2.07782     11.55184         0.690043     -0.098316     -0.851926
O      11.43677     13.48859     11.61346         0.421068      0.589642     -0.402395
O      11.53227      5.89611      2.69541         0.080421     -0.020677     -0.211489
O      11.48043      5.93087     15.97609        -0.501474     -0.045165     -1.105959
O      11.53335      5.92861      7.12494        -0.406565      0.233720     -0.328421
O      11.47363      5.96471     11.48782        -0.122197     -0.510909     -0.343016
O      11.47569      9.79139      2.75636         0.781569     -0.352978     -0.111175
O      11.51760      9.59193     15.96741         0.027539      0.369613      0.139233
O      11.51928      9.72001      7.11106        -0.778224      0.393742     -0.386365
O      11.46227      9.62911     11.45343        -0.478282      0.220031      0.121870
O       1.93903      3.94943      2.86814        -0.395963     -0.984935     -0.638042
O       1.92822      3.80788     15.72939         0.074067      0.364107      0.095145
O       1.90809      0.08577      2.74101         0.376168     -1.183248      0.170977
O       1.80691     15.32224     15.72490         0.591395      0.491589      0.121258
O      13.46556      4.00750      2.65323         0.519518     -0.019308      0.179447
O      13.43967      4.02105     15.74243        -0.535121     -0.322911      0.192749
O      13.49562     15.51289      2.89802        -0.557464      1.209555     -0.926091
O      13.29442     15.50274     15.86761         0.540077      0.073834     -0.553122
O       1.85386      3.88639      7.21679         0.430172      0.377234     -0.165316
O       1.81306      0.06322      7.19460         0.118070     -0.595554     -0.538580
O      13.48472      4.09280      7.32042        -0.196734     -0.254484     -0.730068
O      13.37268      0.22826      7.24956         0.443508     -0.470890     -1.107535
O       1.81843      3.90352     11.49168         0.292769     -0.624479     -0.021005
O       1.94389     15.37716     11.66043        -0.208475     -0.086021     -1.003191
O      13.40179      3.95671     11.59786        -0.387448      0.426918     -0.779904
O      13.36654     15.46466     11.55165        -0.120411      0.767044     -0.547706
O       1.94836      7.64345      2.92908        -0.532042      0.465745     -1.456450
O       1.86286      7.73126     15.77772         0.220402     -0.425413      0.046936
O      13.41474      7.82228      2.71227         0.157776      0.335250     -0.200267
O      13.41202      7.80447     15.76614         0.364636      0.773133      0.363146
O       1.86259      7.75949      7.09094         0.200209      0.194312      0.205187
O      13.51286      7.93803      6.92680        -0.270686     -0.459760      0.467551
O       1.94191      7.65824     11.54602         0.180530      1.463687     -0.178340
O      13.38522      7.86956     11.58416         0.215354     -0.580928     -0.111998
O       1.89408     11.57703      2.84701         0.440202     -0.232828     -0.512969
O       1.86775     11.49067     15.80472         0.019095      0.905783      0.249730
O      13.44305     11.73772      2.76145        -0.236635     -0.137423     -0.392302
O      13.38051     11.62641     15.96533        -0.031441      0.525866     -0.509667
O       2.01963     11.60312      7.18286        -0.878168     -0.380760     -0.786795
O      13.40721     11.69880      7.11308        -0.397848      0.978401     -0.283743
O       1.88455     11.48572     11.61236         0.160545     -0.553029     -0.596302
O      13.26687     11.63620     11.56087         1.006354      0.321484     -0.369605
O       5.60857      3.88293      2.81681         0.692568     -0.800531     -0.672376
O       5.70982      3.83003     15.90073         0.050414      0.436176     -0.549964
O       5.70653     15.43615      2.81007         0.437737     -0.098395     -0.436008
O       5.68262     15.37102     15.84117         0.245577      0.507488     -0.295344
O       5.63289      3.90800      7.14823         0.055349      1.211465     -0.312270
O       5.72854      0.22218      7.20324        -0.074670     -1.083952     -0.023310
O       5.73455      3.92332     11.51314         0.041159      0.361077     -0.462487
O       5.69474     15.41151     11.48211         0.234613      0.430296     -0.028059
O       5.70955      7.75283      2.79369         0.003317     -0.705919     -0.592734
O       5.76560      7.72292     16.00617        -0.039812      0.076948     -0.699822
O       5.80467      7.84758      7.06995        -0.306539     -0.494853     -0.295857
O       5.82045      7.71078     11.32856        -0.265583     -0.172960     -0.170345
O       5.81473     11.52327      2.78045        -0.241335      1.658994      0.187648
O       5.93020     11.59157     15.85599        -1.145281     -0.675992      0.245903
O       5.66671     11.73042      7.09405         0.412640     -0.871711     -0.341798
O       5.85263     11.60553     11.47121         0.067237     -0.673522     -0.352190
O       9.68197      3.92113      2.80023        -1.064347      0.208341     -0.424725
O       9.55132      3.96978     15.88820        -0.157891     -0.554929     -0.463606
O       9.70056      0.19120      2.83039        -0.781560     -0.500064     -0.510736
O       9.63836     15.48503     15.86702        -0.101718     -0.963339     -0.358955
O       9.70539      4.04338      7.15801        -0.580258     -0.285810     -0.382398
O       9.73901      0.16677      7.20040        -0.850517      0.761081     -0.747067
O       9.52436      4.01194     11.48043         0.610257     -0.889638     -0.226296
O       9.58375     15.49332     11.48598         0.001305      0.386236     -0.137424
O       9.53270      7.71965      2.84050         0.308832      0.758647     -0.702395
O       9.35084      7.76014     15.94715         1.575160     -0.914537     -0.334774
O       9.56745      7.82816      7.13250        -0.305489     -0.283393     -0.596108
O       9.47115      7.75112     11.62329         0.406217      0.224486     -1.258162
O       9.62539     11.66393      2.88777        -0.752161      0.114752     -1.059947
O       9.67909     11.59725     15.99832        -0.528357      0.448052     -0.222059
O       9.63748     11.74147      7.19898        -0.356234     -0.763247     -0.742543
O       9.53857     11.61602     11.44166         0.199204     -0.489122     -0.018655
