  # total energy = -7881.69826469 
CRSYTAL
PRIMVEC
    15.3600000000000000    0.0000000000000000    0.0000000000000000
     0.0000000000000000   15.3600000000000000    0.0000000000000000
     0.2400000000000000    0.0000000000000000    17.440000000000000
PRESSURE
1.79424 2.36144 -0.982197 0.08555 -0.997836 0.042111
PRIMCOORD
320 1
Pb       3.92882      3.81859      4.31295        -0.208749     -0.167050      0.113428
Pb       4.07407      3.80390     17.39376         0.422247     -0.224509      0.165780
Pb       3.93722     15.33723      4.35743        -0.406220      0.010492      0.236807
Pb       3.66557      0.10957      0.04609         0.825275     -0.343393     -0.371090
Pb      15.41635      3.74272      4.27758        -0.326525      0.453302      0.485433
Pb       0.27603      3.80041     17.36628        -0.257895      0.430057      0.555722
Pb      15.36236      0.14076      4.33512         0.148613     -0.510758      0.657238
Pb      15.35966     15.24234     17.41230         0.666153      0.348536      0.623463
Pb       4.00949      3.88609      8.65194        -0.515518     -0.296615      0.378803
Pb       3.86326     15.25142      8.65368         0.073161      0.325000      0.682561
Pb       0.29867      3.81355      8.71591        -0.358283      0.179304     -0.112169
Pb      15.32386      0.01790      8.73770         0.470819     -0.455495      0.035051
Pb       3.97534      3.94485     12.95874         0.637489     -0.621551      0.529117
Pb       3.97596     15.29501     13.21759         0.315246      0.099041     -0.256866
Pb       0.19665      3.86491     12.91671        -0.444770      0.189792      0.845495
Pb      15.48755      0.03375     13.16367         0.213021      0.098897     -0.319338
Pb       3.82888      7.60674      4.29790         0.311128      0.285905      0.110506
Pb       3.91377      7.49987     17.33674         0.265141      0.670296      0.515301
Pb       0.06482      7.55413      4.23486        -0.317844     -0.021774      0.114055
Pb      15.51851      7.67378     17.29226        -0.002687     -0.159827      0.631168
Pb       3.97640      7.61589      8.63966        -0.219141      0.841983      1.001372
Pb      15.46467      7.66134      8.68359         0.089554      0.133553     -0.255922
Pb       4.11355      7.60783     13.00919        -0.696857      1.014179      0.052547
Pb      15.39749      7.56152     13.03557         0.446150      0.391141     -0.102449
Pb       3.88257     11.40635      4.26177         0.380449      0.172377      0.220910
Pb       3.86415     11.53971      0.02349         0.096477     -0.272686     -0.701703
Pb       0.13812     11.59549      4.26059        -0.422940     -0.233709      0.472611
Pb      15.56111     11.51701     17.36233        -0.205634     -0.585539      0.264708
Pb       3.97741     11.52272      8.68266        -0.334753     -0.611777      0.545218
Pb      15.40443     11.39961      8.70491         0.297890      0.495419      0.257117
Pb       3.94025     11.53676     13.06105         0.066408     -0.338195     -0.140044
Pb      15.47347     11.58636     13.17674         0.357806     -0.611048     -0.770213
Pb       7.70019      3.84317      4.31093         0.212615     -0.063428      0.287018
Pb       7.98585      3.85788     17.37685        -0.570007     -0.002753      1.121130
Pb       7.79768      0.09866      4.27781         0.115190     -0.561398      0.047848
Pb       7.95980      0.12038     17.43754        -0.131113     -0.763896      0.210804
Pb       7.79387      3.85859      8.69664         0.196246      0.116513      0.013666
Pb       7.73605     15.29257      8.65432         0.392866      0.054480      0.393990
Pb       7.79369      3.70337     13.05471        -0.068436      0.285462      0.251357
Pb       7.81926     15.30379     13.00122         0.119518     -0.014720      0.952505
Pb       7.70913      7.72364      4.36404         0.016229     -0.238756     -0.092277
Pb       7.92762      7.63184     17.38162        -0.133101     -0.346608      0.986627
Pb       7.80274      7.73232      8.60650        -0.280072     -0.526487      0.770002
Pb       7.82101      7.67560     12.94717        -0.059408      0.239353      0.565497
Pb       7.57628     11.55697      4.27947         0.220179     -0.122678      0.119465
Pb       7.69911     11.47393      0.00959        -0.081228      0.218994     -0.129448
Pb       7.83181     11.48890      8.62962        -0.229851      0.356071      0.527941
Pb       7.77308     11.40224     13.06352         0.246704      0.551540      0.515701
Pb      11.50606      3.70779      4.30281         0.512828      0.172827      0.459328
Pb      11.80564      3.71402     17.37351        -0.736258      0.437857      0.902957
Pb      11.62214     15.26388      4.17267        -0.659409      0.423120      1.430532
Pb      11.62716     15.23927     17.34970        -0.049433      0.130215      0.196797
Pb      11.54651      3.78390      8.70448        -0.047607      0.331025     -0.163972
Pb      11.71732     15.28599      8.67458        -0.416203      0.191987     -0.243214
Pb      11.64157      3.83272     12.94539        -0.347727     -0.159590      1.182835
Pb      11.68911      0.09374     12.97320        -0.533440     -0.306269      0.619984
Pb      11.64007      7.71447      4.26942         0.046682     -0.503505      0.648059
Pb      11.83482      7.66595     17.43898        -0.523790     -0.280516      0.395935
Pb      11.77728      7.78401      8.72007        -0.566287     -0.868404      0.287037
Pb      11.45724      7.81097     12.99062         0.432547     -0.281753      0.727613
Pb      11.51993     11.56069      4.39056         0.186777     -0.060785     -0.239775
Pb      11.51621     11.45723      0.01585        -0.258412     -0.039784     -0.378606
Pb      11.68069     11.43193      8.61453        -0.413049      0.569047      0.553381
Pb      11.63826     11.51115     13.02251        -0.234937     -0.020122      0.480659
Ti       1.96982      1.91824      2.35226        -0.303188      0.180250     -0.120043
Ti       2.11469      1.88270     15.44225         0.452120     -0.178140     -1.046216
Ti       1.88444     13.48690      2.32851         0.456545      0.018426      0.800471
Ti       2.13832     13.40792     15.44157         0.700642      0.203391      0.293090
Ti      13.48144      1.91730      2.26647        -0.070596      0.255162     -0.024812
Ti      13.65606      1.89360     15.50409        -0.127940      0.015815     -1.421722
Ti      13.41939     13.43046      2.38697        -0.048429      0.064286     -1.121542
Ti      13.62997     13.37851     15.36894        -1.027265      0.219704     -0.081211
Ti       2.07213      1.84698      6.82422        -1.524248      0.586778     -2.000570
Ti       1.96415     13.43627      6.74058        -0.729592     -0.000228     -0.833336
Ti      13.55696      1.97662      6.77464        -0.101842     -0.321134     -1.523891
Ti      13.56259     13.42437      6.70854         0.873338      0.552067     -1.814722
Ti       2.08823      1.94014     11.14937         1.001417     -0.709249     -1.422974
Ti       2.09142     13.46133     11.06065        -0.180004     -0.391608     -0.579021
Ti      13.61033      1.95615     11.08727        -0.506928     -0.064562     -0.460899
Ti      13.60915     13.44135     11.11827         0.032153      0.021896     -1.100430
Ti       1.96933      5.71655      2.31290        -0.357764     -0.384482     -0.334529
Ti       2.12083      5.71233     15.32779        -1.025594     -0.104446      0.805965
Ti      13.42046      5.73914      2.33776         1.133226     -0.500915     -1.121033
Ti      13.53880      5.67030     15.39293        -0.007214      0.441628     -0.613929
Ti       2.00816      5.77388      6.62538        -0.593661     -0.313999      0.903328
Ti      13.48503      5.66543      6.79254         0.059429      1.234849     -1.798912
Ti       2.08633      5.80012     10.98406        -0.829334      0.883300      2.426606
Ti      13.40493      5.81424     11.11400         1.673240      0.046479     -0.494241
Ti       1.96740      9.56354      2.30521        -0.499066     -0.419114     -0.757172
Ti       2.13482      9.59558     15.35260        -0.252304      0.225125     -0.614719
Ti      13.48902      9.64670      2.40814         0.575186     -0.493390     -0.531746
Ti      13.58841      9.50134     15.33127        -0.024555      0.694548     -0.319265
Ti       2.00990      9.66395      6.67359        -0.179292     -1.239548      0.300521
Ti      13.49082      9.57290      6.70844         1.149382     -0.250965      0.311056
Ti       2.01493      9.59546     11.02445         0.679960      0.117103     -0.053600
Ti      13.59987      9.62134     11.08352         0.122278      0.009481     -0.684839
Ti       5.76046      1.82611      2.40904         0.714720      1.351423     -1.612416
Ti       6.04295      1.87877     15.46334        -1.453861      0.257168     -1.540229
Ti       5.73347     13.39889      2.30729         1.285642     -0.186649     -1.111063
Ti       6.02194     13.39313     15.51202        -0.092000      0.299590     -0.649224
Ti       5.86353      1.93468      6.76922         0.411521     -0.641334     -1.474424
Ti       5.82169     13.45560      6.75964         0.448235     -0.872561     -0.120103
Ti       5.92265      1.88550     11.03583         0.448793      0.057515     -1.897624
Ti       5.95355     13.45671     11.05550        -0.196528     -0.136518      0.677757
Ti       5.82694      5.70497      2.44324         0.303079      0.159453     -1.939673
Ti       5.96380      5.81215     15.38317         0.929010     -1.492447     -0.360568
Ti       5.83046      5.72677      6.67723         0.058995      1.456114      0.195652
Ti       5.94183      5.75871     11.05181         0.549071      0.346841     -0.884582
Ti       5.74993      9.41086      2.23163         0.727232      1.711675      0.172874
Ti       5.95589      9.49114     15.45485        -0.617798      1.830424     -0.328954
Ti       5.77831      9.56041      6.71416         0.012238      0.608961     -0.929291
Ti       5.84434      9.65034     11.06344        -0.586442     -1.179282     -2.018970
Ti       9.69799      1.86008      2.39548        -0.986206      0.053377     -2.023596
Ti       9.80617      1.93620     15.40450         0.152928     -0.381060     -0.994526
Ti       9.60193     13.35400      2.25521        -0.372254      0.590294     -0.480540
Ti       9.78639     13.31438     15.40556        -0.368195      0.207800      0.985339
Ti       9.74705      1.85370      6.74478        -0.153335     -0.268394     -1.867772
Ti       9.73717     13.39255      6.66872        -0.812980      0.286963     -0.542366
Ti       9.67373      1.91528     11.00595         0.125722     -0.650312      0.043064
Ti       9.75438     13.41203     11.11335        -0.574173     -0.510675     -0.585643
Ti       9.72361      5.74791      2.41754        -1.588976     -0.299602     -0.881202
Ti       9.73286      5.77297     15.39410         1.257423     -0.884993      0.115816
Ti       9.70760      5.74086      6.59497         0.296310     -0.039647      0.432402
Ti       9.68753      5.73700     11.06722        -1.046991      0.406751     -1.208512
Ti       9.64399      9.57127      2.39121        -0.172025     -0.559237     -1.755715
Ti       9.75187      9.45776     15.47821         0.239605      1.797721     -0.465306
Ti       9.65874      9.50084      6.69127        -0.048822      0.821719      0.165353
Ti       9.65656      9.63241     11.01673         1.344721     -0.080326     -0.049344
O       1.93939      1.95473      0.59876         0.090191     -0.358746     -0.750238
O       2.02388      1.82100     13.65498         0.412045      0.297235     -0.386559
O       2.02760     13.55379      0.60659        -0.363299     -0.405014     -0.102410
O       2.15433     13.46411     13.66717        -0.334388     -0.204302     -0.159972
O      13.50125      1.90458      0.51042        -0.016966     -0.369842     -0.915276
O      13.62422      1.95396     13.69796         0.114732     -0.313720      0.804902
O      13.35656     13.41854      0.59359         0.277754      0.140489     -0.080088
O      13.60011     13.44837     13.57607         0.387833      0.008106      0.665381
O       1.84991      1.80239      5.02414         0.694119      0.323005      0.425098
O       1.85718     13.55479      4.94083         0.229329     -0.774584      0.552471
O      13.51339      2.05988      4.97577         0.092140     -0.418749      0.283424
O      13.61903     13.51495      4.85740        -0.481637     -0.512853      1.302244
O       2.20652      2.02379      9.35237        -0.599173     -0.413915      0.315170
O       2.01265     13.50552      9.26621         0.311023      0.145609      1.132252
O      13.55349      2.00276      9.31544        -0.161320     -0.097843      0.175176
O      13.70125     13.40268      9.28154        -0.691639      0.521621      1.001486
O       2.00721      5.77691      0.54724        -0.240273     -0.218400     -0.507372
O       2.02410      5.62613     13.60355         0.424210      0.226712     -0.545981
O      13.42345      5.78222      0.57869         0.037550     -0.028036     -0.355825
O      13.50820      5.70865     13.58534         0.005401      0.058470      1.151073
O       1.91576      5.69868      4.88995         0.364015      0.157085     -0.959983
O      13.45471      5.72246      4.99580         0.194249     -0.026509      0.206594
O       2.09191      5.75321      9.30007        -0.322409     -0.171293     -1.590646
O      13.47625      5.83369      9.34729        -0.257395     -0.459075     -0.006839
O       1.80464      9.56584      0.52903         0.482396     -0.061287      0.593134
O       2.03012      9.65526     13.56664         0.077577      0.204884      1.201204
O      13.40623      9.50973      0.67099         0.213964      0.480901     -0.865826
O      13.65411      9.53520     13.55132        -0.087518      0.143114      0.532214
O       2.13836      9.63280      4.86949        -0.303514     -0.053202      1.054027
O      13.44065      9.66267      4.99689        -0.041626     -0.147291     -1.497808
O       2.08319      9.49226      9.24414        -0.692533      0.297351      0.422801
O      13.62623      9.60358      9.23206        -0.296700      0.237084      0.943203
O       5.71881      2.08014      0.62382        -0.103268     -0.768999      0.361484
O       5.98357      1.89730     13.63204         0.167729      0.002234      0.841213
O       5.87349     13.43396      0.51911        -0.722103     -0.405673      1.156451
O       6.07654     13.48941     13.70558        -0.378783     -0.238266      0.888946
O       5.71953      1.79244      4.89462         0.326649      0.395365      1.457943
O       5.78073     13.44083      5.03002         0.134360     -0.005489     -0.884811
O       6.11077      1.97888      9.12586        -0.837093     -0.075903      1.200349
O       5.96600     13.43693      9.29992        -0.316971      0.110730     -0.391553
O       5.89257      5.73229      0.63656        -0.173175     -0.029313      0.716640
O       5.90962      5.76804     13.59514        -0.118182      0.105901      0.481600
O       5.65687      5.75588      4.94862         0.329389      0.045557     -1.144561
O       6.08735      5.77570      9.24270        -0.675076     -0.155836      1.006225
O       5.73773      9.52402      0.46897        -0.171022     -0.196745      0.174423
O       5.97649      9.48075     13.67329        -0.104498      0.108739     -0.321862
O       5.73915      9.62213      4.89668         0.056082     -0.161925      1.081023
O       5.80581      9.51951      9.25513         0.091584      0.474487      1.083567
O       9.68805      1.91565      0.57066        -0.081891     -0.131190      0.726484
O       9.83133      1.93311     13.59127        -0.348967      0.201435      1.094276
O       9.52759     13.21533      0.46417         0.549366      0.523775      0.649874
O       9.82877     13.23210     13.69076        -0.339327      0.543073     -1.366407
O       9.82242      1.67205      4.87207        -0.407566      0.689457      1.125195
O       9.73325     13.39713      4.88478        -0.022358     -0.027115      0.696289
O       9.65801      1.90893      9.23859         0.269471      0.047125     -0.254360
O       9.61577     13.24079      9.34044         0.598974      0.550496      0.630469
O       9.55235      5.81886      0.63555         0.043719     -0.210502      0.668919
O       9.71754      5.70989     13.65466         0.122930      0.155722     -0.674879
O       9.84883      5.80316      4.83486        -0.431295     -0.247469      0.674149
O       9.52063      5.78521      9.29823         0.391859     -0.256311      0.540999
O       9.74065      9.52189      0.54777        -0.531865     -0.015911      1.433346
O       9.69365      9.47935     13.70923         0.152146     -0.029994     -0.497511
O       9.75930      9.55640      4.93778        -0.153027      0.056834     -0.438883
O       9.67415      9.71813      9.27718         0.434492     -0.019232     -0.835912
O       3.85093      1.94251      2.74662         0.243262     -0.362590      0.328723
O       3.99713      1.96546     15.71277         0.789283      0.107125      0.690080
O       3.91693     13.38005      2.73036        -1.006051     -0.031084     -0.124674
O       4.03362     13.34916     15.82721         0.040215     -0.171652      0.161806
O      15.36556      1.93947      2.76733         0.513347     -0.268764     -0.354325
O       0.27751      1.81107     15.75378        -1.456624      0.088441      0.674361
O      15.30953     13.38916      2.67816         1.811183      0.153855     -0.225782
O       0.23253     13.47789     15.95845        -0.641836     -0.278049     -0.957372
O       3.89650      1.81164      7.17100         1.568664      0.141338     -0.137282
O       3.87337     13.39159      7.15446         0.360196      0.718670     -0.168011
O      15.42557      2.08714      7.13267         0.476000     -0.361816      0.563556
O      15.43889     13.53245      7.22406         0.124433     -0.708308     -0.356804
O       4.14781      1.93065     11.35894        -1.453488     -0.014932      0.613558
O       4.07343     13.40711     11.56578        -0.213029      0.502440     -0.390671
O       0.19702      1.93976     11.34580        -0.212268      0.080161      0.375860
O      15.51650     13.46577     11.47391         0.347199     -0.062859      0.337160
O       3.87683      5.72383      2.65834         0.489328     -0.203836      0.635932
O       4.15750      5.59829     15.80649        -1.456202      0.489440     -0.260598
O       0.04560      5.61339      2.70092         0.241066      0.500686      0.205248
O      15.48649      5.73850     15.73683         0.844881      0.273846     -0.076313
O       3.87762      5.91086      7.09641         0.501092     -1.203364     -0.251850
O      15.40761      5.71915      7.11476         0.419685     -0.580707      0.335732
O       3.95744      5.81708     11.43582         0.648440     -0.245069     -0.150846
O      15.34247      5.75419     11.49719         1.633485     -0.459295     -0.351180
O       3.94359      9.60398      2.71212        -1.061317     -0.192884     -0.206138
O       3.98834      9.64810     15.76357        -0.051532     -0.145760      0.124027
O       0.07250      9.54693      2.80505        -0.137799      0.326373      0.036701
O      15.47438      9.57589     15.86012         0.157012     -0.144876     -0.435965
O       3.87420      9.49640      7.28710        -0.107357      0.740643     -1.202086
O      15.45031      9.60431      7.12750         0.412215     -0.110001     -0.358294
O       3.89361      9.57543     11.43979         1.473156      0.099136      0.421228
O       0.16112      9.70388     11.50695        -0.970613      0.291152     -0.165569
O       7.73110      1.77557      2.54358        -0.525040      0.225562      1.148444
O       7.89739      1.81500     15.79244         0.752334      0.055137      0.122993
O       7.80428     13.49048      2.76268        -1.839817     -0.227555      0.264987
O       7.91203     13.40559     15.97206        -0.380605      0.227401     -0.615082
O       7.83950      2.05604      6.94453        -1.293599     -0.691308      0.072991
O       7.79002     13.44129      7.09070        -0.115796     -0.231468     -0.193059
O       7.80343      1.83995     11.41263         0.846067      0.714084      0.393777
O       7.78734     13.35714     11.57818         0.840802     -0.158942     -0.313523
O       7.74540      5.82230      2.92416        -0.424206     -0.238598      0.018647
O       7.90375      5.81540     15.79816        -0.666397      0.295377      0.127774
O       7.73676      5.84150      7.03727         0.225285     -0.604378     -0.596174
O       7.80256      5.78169     11.62818        -0.015798      0.013220     -0.757444
O       7.67633      9.41686      2.74459         1.085721      0.306038     -0.196859
O       7.82648      9.45343     15.86275         0.816388      0.124235     -0.139715
O       7.75202      9.67551      7.16366         0.064188     -0.546431     -0.982179
O       7.86292      9.58405     11.24515        -1.699741     -0.222483      0.956570
O      11.58050      1.96232      2.69202        -0.109947     -0.411001      0.058532
O      11.68915      1.87133     15.81383         1.159634      0.404793     -0.028007
O      11.50466     13.45624      2.69260        -0.324696     -0.656425      0.145227
O      11.66885     13.28252     15.83300         1.354789      0.568990     -0.057606
O      11.63993      1.86458      7.18655        -0.488028      0.061507      0.370654
O      11.69419     13.46734      7.02219        -0.624270     -0.111741      0.464451
O      11.60244      1.94934     11.50776         0.641429     -0.296324     -0.768246
O      11.64535     13.44054     11.52526         0.182984      0.309342     -0.428882
O      11.58092      5.73001      2.69932        -0.039446     -0.377753      0.266890
O      11.64188      5.56562     15.95327         1.434855      0.763225     -0.865425
O      11.56087      5.91388      7.18220        -0.149964     -0.629415      0.036712
O      11.54242      5.83756     11.50890         0.825877     -0.682180     -0.286326
O      11.62883      9.58136      2.72399        -1.534939      0.118997      0.521112
O      11.68605      9.55895     15.79018         1.192240      0.417555     -0.014198
O      11.59593      9.56586      7.19968        -0.234974      0.408582     -0.537440
O      11.68475      9.53606     11.43642         0.168621      0.451608     -0.146618
O       2.06650      3.79389      2.64366        -0.517593      0.134100      0.594738
O       2.07141      3.85549     15.83675         0.249683     -0.179466     -0.272101
O       1.96730      0.02428      2.83280        -0.045266     -0.933378     -0.652715
O       2.22984     15.28612     15.85937        -0.336748      0.755452     -0.173983
O      13.44960      3.77002      2.54086         0.069473      0.546372      0.799684
O      13.75104      3.81227     15.92356        -0.503133     -0.553289     -0.550419
O      13.40375     15.35234      2.73402         0.707948      0.414466     -0.460636
O      13.65949     15.31740     15.84390        -0.402628     -0.018608     -0.263325
O       2.11603      3.77284      7.08974         0.010979      1.020752      0.449043
O       1.92908     15.30932      7.12765         0.429973      0.674850      0.557240
O      13.32431      3.83788      7.03016         0.156976      0.288803      0.996771
O      13.61111      0.06065      7.07398        -0.308592     -0.555155      0.579912
O       2.23345      3.87209     11.38157        -0.925927     -0.158980      0.335369
O       2.18137      0.02333     11.58171        -0.242587      0.012077     -0.372140
O      13.56380      3.80503     11.60658        -0.277908      0.287120     -0.996367
O      13.62401      0.02957     11.52442        -0.170182      0.389227     -0.325430
O       2.02793      7.60775      2.61329        -0.267266      0.626480      0.684192
O       2.16360      7.65409     15.70529        -0.049340     -0.585349      0.044274
O      13.56343      7.64229      2.60533        -0.234909      0.153043      1.099369
O      13.56901      7.63936     15.79485         0.087659     -0.238274     -0.325086
O       1.93826      7.60138      7.03661        -0.130449      1.062544     -0.132447
O      13.54556      7.69726      7.06574         0.005690     -0.046170      0.464016
O       2.00752      7.72647     11.44095        -0.255699     -1.506186      0.064536
O      13.68642      7.72657     11.33849        -0.578266     -0.260875      0.411844
O       1.95826     11.40877      2.71507         0.079068      1.886159     -0.132928
O       1.99415     11.49649     15.85160         0.332698      0.087244     -0.197464
O      13.33394     11.57508      2.69697         0.684718     -0.980444      0.524788
O      13.67933     11.56012     15.70442         0.206458     -1.116385      0.195928
O       1.99503     11.50707      7.18556         0.045064     -0.003618     -0.652512
O      13.62039     11.55126      7.00754        -0.480234     -0.295054      0.430444
O       2.17890     11.55202     11.37452        -0.494215      0.695668      0.322836
O      13.46480     11.58687     11.43180         0.773866     -0.797959      0.094989
O       5.88236      3.80909      2.83601        -0.340535     -0.016719      0.226856
O       6.19892      3.79022     15.81440        -0.807348      0.595062     -0.251060
O       5.70902     15.33655      2.68489         0.182983     -0.708698      0.226431
O       5.90033     15.34773     15.90737         0.170093      0.187356     -0.014716
O       5.69941      3.89937      6.97468         0.284983     -1.504163      0.282135
O       5.91286     15.34728      7.13140        -0.425434      0.610691     -0.056439
O       6.00205      3.88875     11.41219        -0.395890     -0.501158      0.010889
O       6.08691      0.00271     11.48161        -1.043421     -0.379829     -0.623022
O       5.77977      7.63781      2.73223        -0.261287     -0.672974      0.384903
O       5.90224      7.66926     15.79950        -0.178103     -1.345040      0.156625
O       5.76867      7.71444      7.02175         0.651746     -0.530306      0.171447
O       5.82969      7.70180     11.45602         0.667388     -0.415435      0.077276
O       5.90835     11.44953      2.69999        -0.422955      0.659917     -0.241865
O       5.95645     11.46949     15.80915         0.270279      0.016084      0.282541
O       5.72509     11.47977      7.08484         0.339186      0.438993      0.057926
O       5.94530     11.43989     11.48695        -0.306512      1.037857      0.023251
O       9.48384      3.77810      2.85848         0.897538      0.135542     -0.319588
O       9.77254      3.85235     15.88586        -0.124569     -0.900587     -0.608112
O       9.59858     15.29190      2.59614         0.775201      0.468655      0.261211
O       9.88887     15.34117     15.80278        -0.489683     -0.050630     -0.042706
O       9.70249      3.81301      6.97848         0.638378      0.600015      0.214806
O       9.73930     15.32768      7.15638        -0.120298     -0.194888      0.112234
O       9.63162      3.80888     11.30174         0.353589      0.158018      0.381187
O       9.69124     15.31531     11.46172         0.368506      0.078777     -0.308212
O       9.75229      7.58784      2.81167        -0.342819      1.672229     -0.030159
O       9.94553      7.62931     15.73881        -0.345055     -0.474946      0.571254
O       9.62767      7.65804      7.07381         0.151297      0.619644     -0.249901
O       9.78190      7.68698     11.38311        -0.629788      0.122339      0.252135
O       9.47362     11.46731      2.60101         0.808234     -0.778988      0.688626
O       9.72790     11.43181     15.74819        -0.032846     -0.593514      0.550611
O       9.68735     11.53979      7.07694         0.627251     -0.512795     -0.119916
O       9.75201     11.46963     11.60518         0.066716      0.171434     -0.371987
