  # total energy = -7881.11345501 
CRSYTAL
PRIMVEC
    15.3600000000000000    0.2300000000000000    0.0000000000000000
     0.0000000000000000   15.3600000000000000    0.0000000000000000
     0.0000000000000000    0.0000000000000000    17.440000000000000
PRESSURE
1.99905 1.92456 -0.134387 0.046962 -0.208574 -1.53795
PRIMCOORD
320 1
Pb       3.92256      3.87515      4.18726        -1.119275     -0.307669      1.281233
Pb       3.78327      4.05456     17.35209         0.520772     -0.204275     -0.084963
Pb       3.71707     15.24512      4.26874         0.612235      0.146244      0.389071
Pb       3.73320     15.39201     17.35753         0.398322      0.317341      0.202113
Pb       0.06856      3.82849      4.33707        -0.173052      0.248541      0.602065
Pb      15.33472      4.11376      0.02451         0.332061     -0.557559     -0.236193
Pb      15.24945      0.31151      4.27074        -0.186040     -0.725194      0.636321
Pb      15.24761     15.53138      0.05948         0.149126      0.439750     -0.297191
Pb       3.86630      3.95405      8.62694        -0.025711     -0.662086      0.627192
Pb       3.76216     15.28681      8.66476         0.548833      0.202702      1.067592
Pb       0.11210      3.95855      8.68032        -0.411882     -0.239783      0.480773
Pb       0.03274     15.35790      8.61354        -0.324516     -0.552872      0.743233
Pb       4.01137      3.95736     13.07440        -0.309934     -0.340294      0.104839
Pb       3.71695      0.20930     13.08679         0.659604     -0.181524      0.685453
Pb       0.03810      3.81033     13.09071        -0.184379     -0.037058     -0.359388
Pb       0.00089      0.04361     13.02075        -0.588340      0.053544      0.224868
Pb       3.91263      7.72368      4.16260        -0.794633      0.208609      1.127777
Pb       3.73405      7.83882     17.36313         0.404026     -0.210943      0.528781
Pb      15.16251      7.75992      4.23889         1.041751      0.133637      0.297898
Pb      15.30904      7.86136     17.31342         0.770005      0.563161      0.247103
Pb       3.84066      7.62721      8.62620        -0.267038      0.880222      0.849716
Pb      15.26939      7.93997      8.53004         0.022477      0.017098      1.225251
Pb       3.91737      7.68296     12.97950        -0.522270      0.440978      0.246763
Pb      15.33133      7.84819     12.95756        -0.029459      0.251873      0.118284
Pb       3.98204     11.42120      4.35728        -0.342121      0.531702      0.134621
Pb       3.87597     11.54530     17.38976         0.155075      0.275198     -0.311335
Pb       0.01758     11.36620      4.24153        -0.218489      0.828693      1.150931
Pb       0.12590     11.61783     17.33627        -0.418216     -0.608598      0.510879
Pb       3.63930     11.43653      8.68289         0.777186      0.378273      0.385768
Pb      15.29029     11.69022      8.51864        -0.562037     -0.224010      0.394612
Pb       3.83255     11.61437     13.00278         0.233286     -0.215153      0.793310
Pb      15.35889     11.74814     12.88844        -0.193244     -0.317390      0.598483
Pb       7.58070      3.79236      4.37527         0.372089      0.115994     -0.053045
Pb       7.62779      4.09009     17.42338        -0.127706     -0.654809      0.262106
Pb       7.59515     15.40152      4.34448         0.076816      0.020746     -0.221926
Pb       7.75649      0.13532      0.09949        -0.644588      0.524899     -0.619863
Pb       7.69501      3.88022      8.67585        -1.128035      0.249747      0.918574
Pb       7.74788     15.35880      8.76090        -0.707373      0.523889      1.026381
Pb       7.74398      3.91626     13.04487        -0.466959     -0.037772     -0.309155
Pb       7.63761     15.37096     13.10182         0.196619      0.060832      0.021714
Pb       7.66996      7.81127      4.30509         0.013176      0.170401      0.225846
Pb       7.80707      7.78865     17.40266        -0.559491      0.179151      0.536699
Pb       7.73733      7.84530      8.71931        -0.355846     -0.159757      0.269369
Pb       7.63684      7.67532     13.03986         0.532703      0.000073     -0.168358
Pb       7.82045     11.67106      4.38707        -0.710880     -0.094100      0.291148
Pb       7.62641     11.73784     17.41136         0.166085     -1.003508      0.239862
Pb       7.52305     11.64707      8.80550         0.267103      0.034881      0.056765
Pb       7.61018     11.54989     13.06199         0.070794      0.631568      0.064567
Pb      11.49568      4.11315      4.30444         0.025318     -0.581775      0.708261
Pb      11.39126      3.91858     17.33929        -0.122157      0.216927      0.286970
Pb      11.45280      0.22676      4.39001         0.050952      0.093342     -0.234946
Pb      11.47095     15.49338     17.40130        -0.032613      0.085147     -0.422257
Pb      11.39413      3.86573      8.68597         0.828134      0.125850      0.588837
Pb      11.60467     15.43163      8.62646        -0.288176      0.366695      0.961889
Pb      11.44189      3.82281     12.95045         1.191787      0.729759      1.357842
Pb      11.58866      0.23239     13.08345        -0.112884     -0.612672      0.254163
Pb      11.50790      7.76128      4.20631        -0.377775     -0.174680      0.537139
Pb      11.53826      7.83945     17.34802        -0.001385     -0.088377      0.304980
Pb      11.45616      7.74821      8.68513         0.821494      0.745447      1.158231
Pb      11.42182      7.74707     13.12305         0.355257      0.232432     -0.015214
Pb      11.55539     11.78691      4.23606        -0.391273     -0.259509      1.195227
Pb      11.55745     11.60369      0.02429        -0.270587      0.411032     -0.712248
Pb      11.33990     11.69981      8.74273         0.507631     -0.494152      0.173038
Pb      11.63961     11.62780     13.05285        -0.653851      0.035423      0.910845
Ti       1.84879      1.86382      2.32937         0.457775      0.635166      0.216687
Ti       1.86814      2.04098     15.46266        -0.077385     -0.943547     -1.998753
Ti       1.82356     13.42949      2.33202         0.337317     -0.393663      0.043952
Ti       1.91206     13.55588     15.38024        -0.036597      0.293388     -0.169121
Ti      13.35682      2.20624      2.34659        -0.351499     -0.467532     -0.228610
Ti      13.38589      2.14144     15.46868         0.289944     -1.516704     -1.911830
Ti      13.35756     13.64226      2.33540         0.920506      0.578577     -0.226671
Ti      13.43760     13.64435     15.50548        -0.813071     -0.081091     -0.737365
Ti       1.99445      1.90219      6.72253        -0.474874      1.103385      0.361113
Ti       1.85366     13.38963      6.61956        -0.007356     -0.373227     -1.876750
Ti      13.44364      2.10769      6.81766         0.140844      0.573397     -0.284873
Ti      13.33008     13.57995      6.61847         0.430989     -0.534890     -1.180637
Ti       1.90988      1.94468     11.01571         0.413534      0.921284      0.028463
Ti       1.93017     13.53103     11.19479         0.015771     -0.401167      0.252496
Ti      13.45416      2.05370     10.94021        -0.532193      0.178219      0.717017
Ti      13.35417     13.54688     11.00392         0.828988      0.799881     -0.067621
Ti       1.93406      5.75490      2.31628        -0.274885      0.850941      0.010864
Ti       1.94099      5.86886     15.31524        -0.255792     -0.166666      0.076198
Ti      13.37736      5.91019      2.20130         0.063060     -0.225315      1.330728
Ti      13.46721      5.83862     15.47806        -0.157776      0.745506     -2.111366
Ti       1.86407      5.82576      6.70492         0.439765     -0.614492     -1.539382
Ti      13.34094      5.90964      6.79435         1.047976     -0.542068     -0.693386
Ti       1.97339      5.70558     11.08648        -0.776555      0.969436     -1.196237
Ti      13.41732      5.90694     11.09563         0.874225      0.219614     -1.726185
Ti       1.89916      9.64643      2.32719        -0.742896     -0.835444     -0.924845
Ti       1.97324      9.69721     15.29499        -0.669280     -0.561068     -0.736244
Ti      13.38171      9.76944      2.34707         0.551467      0.261424     -0.233291
Ti      13.49226      9.75880     15.45034         0.180875      0.547709     -2.567966
Ti       1.91001      9.56573      6.58385        -0.493114     -0.060847     -0.254760
Ti      13.32205      9.72820      6.61448         0.365373      0.678551      1.267714
Ti       1.94968      9.59754     11.04852        -0.276457     -0.359409      0.587169
Ti      13.38753      9.72755     11.10261        -0.066858      0.066986     -0.870155
Ti       5.70227      2.00989      2.29010         0.018583     -1.267128     -1.105336
Ti       5.72273      2.03791     15.43375         0.124927     -0.166455     -0.226586
Ti       5.73177     13.52086      2.28998        -0.262248      0.554182     -0.912533
Ti       5.80759     13.61859     15.51254        -0.277049      0.167596     -1.544651
Ti       5.77633      1.90954      6.72084        -0.159850      1.122288      1.067704
Ti       5.66845     13.53376      6.69512         0.628257     -0.723419      0.222324
Ti       5.69276      2.01147     11.08884         0.742051     -0.742624     -0.474266
Ti       5.70321     13.59971     11.19540         0.218101     -1.047670     -0.779105
Ti       5.71492      5.88303      2.34201         0.155967     -0.219584     -2.556851
Ti       5.79984      5.87110     15.44759        -0.300153     -0.373404     -0.118083
Ti       5.72104      5.89224      6.70194         0.717217     -0.522264      0.265385
Ti       5.83187      5.88530     10.95344        -0.640191     -1.455996      1.254825
Ti       5.81634      9.76237      2.30903        -0.186671     -0.734988     -0.616091
Ti       5.80473      9.61043     15.42066        -0.023641      0.773755      0.358887
Ti       5.75955      9.68824      6.74931         0.206134      0.191591     -0.116189
Ti       5.79906      9.66405     10.99204        -1.456292      0.634315     -0.330940
Ti       9.50659      2.07272      2.28857         0.358920      0.153969      0.176160
Ti       9.45705      2.12106     15.38462         0.370376     -1.480543      1.156620
Ti       9.56807     13.59863      2.25477        -0.969648      0.368705      0.776538
Ti       9.57805     13.58795     15.53670         0.848600      0.258441     -1.553347
Ti       9.56320      2.02798      6.78142        -0.179256      0.161925      0.660632
Ti       9.50914     13.59456      6.78345         0.037467     -0.738230      0.322775
Ti       9.56375      2.00150     11.06089        -0.265270     -0.855732     -0.641375
Ti       9.62402     13.53423     11.15227        -1.094907      0.420948     -0.482991
Ti       9.46789      5.88806      2.28321         0.852220      0.052271     -1.463543
Ti       9.62193      5.91652     15.42804         0.324811     -0.377863      1.396977
Ti       9.61447      5.88868      6.68861        -1.719530     -0.250158      0.055254
Ti       9.69248      5.86331     10.87801        -0.698097      0.601481      2.102941
Ti       9.60032      9.77643      2.33153        -0.275647     -0.361439     -1.173146
Ti       9.63128      9.71951     15.41331        -0.527391      0.934248      0.692461
Ti       9.59632      9.69789      6.76663        -1.213802      1.293197      0.775282
Ti       9.59744      9.70952     11.07984         0.695991     -0.344589     -0.395410
O       1.60983      1.87283      0.58740         0.866272      0.372151      0.543642
O       1.89413      1.95890     13.58825        -0.457073      0.247249      1.933518
O       1.84927     13.49934      0.54518         0.168900      0.004345      0.590809
O       1.88111     13.59661     13.59512        -0.198832     -0.076688      0.989874
O      13.39444      2.26287      0.57626        -0.069572     -0.226902      0.812252
O      13.41200      2.08840     13.59970         0.004158      0.089216      1.817701
O      13.50637     13.70491      0.54135        -0.608195     -0.396858      1.418189
O      13.34156     13.62334     13.74346         0.288065     -0.034255     -0.039696
O       1.86486      1.99770      4.96519        -0.030919     -0.458971      0.355304
O       1.89003     13.28077      4.81001         0.042932      0.552411      1.648156
O      13.38490      2.24361      5.06834         0.300772     -0.385450     -0.751063
O      13.17026     13.50510      4.79647         0.507372      0.973412      1.278992
O       2.03803      2.00007      9.25665        -0.537297     -0.406750      0.281266
O       2.13571     13.51453      9.48342        -0.504012     -0.131923     -1.247402
O      13.27872      2.07864      9.17374         0.432111     -0.219487      0.910561
O      13.35196     13.51899      9.25403         0.180037      0.000553     -0.564846
O       2.07136      5.78390      0.55008        -0.273889     -0.136324      0.179424
O       1.91749      5.82151     13.57276        -0.262690     -0.075605     -0.629784
O      13.28855      5.96807      0.47721         0.575180     -0.387164     -0.475963
O      13.43885      5.90652     13.66946         0.433209     -0.192596      1.002694
O       1.91520      5.77392      4.92363        -0.068421     -0.128066      0.011428
O      13.31974      5.90005      5.01567         0.170580      0.208488     -0.026198
O       1.90753      5.75230      9.24883         0.225855      0.171511      1.102551
O      13.49118      5.99810      9.27739        -0.256628     -0.186394      0.476758
O       1.72173      9.63420      0.53691         0.766815     -0.020090      0.829854
O       1.94620      9.68975     13.50858        -0.031148     -0.210669      1.177438
O      13.39734      9.79795      0.58960        -0.087390     -0.142165     -0.020357
O      13.50040      9.81084     13.58032        -0.315088     -0.018155      2.104726
O       1.77186      9.65114      4.83768         0.438694      0.030169     -0.443429
O      13.40397      9.66505      4.90071        -0.251278     -0.205424     -1.455423
O       2.01315      9.58999      9.28931        -0.269900      0.273729     -0.242936
O      13.23891      9.84390      9.32626         0.327996     -0.187446      0.361728
O       5.77960      2.01234      0.52305        -0.486819      0.123497      0.910420
O       5.71348      2.06474     13.65118         0.190786     -0.053186      0.065703
O       5.68157     13.47402      0.46283        -0.202646      0.088762      1.150741
O       5.87116     13.67225     13.65512         0.052946     -0.519967      2.362625
O       5.86689      1.94133      4.97253         0.078915      0.359162     -0.462674
O       5.74461     13.53363      4.91776         0.003483     -0.169687      0.890810
O       5.74385      2.04026      9.35128        -0.246691     -0.281866     -0.240400
O       5.53323     13.40923      9.42215         0.447674      0.322804     -0.110641
O       5.55835      5.72461      0.47431         0.213923      0.282603      1.415549
O       5.85391      5.77474     13.67897         0.113763      0.512193     -0.108259
O       5.71633      5.95191      4.89973         0.163759     -0.371184      0.474229
O       5.51948      5.71592      9.27536         0.713428      0.695580     -0.714747
O       5.60767      9.69437      0.55023         0.443515      0.250842      0.985576
O       5.81871      9.60360     13.66959         0.181555     -0.247436     -0.147965
O       5.82480      9.74470      4.93894         0.089734     -0.284573     -0.005104
O       5.63961      9.67837      9.20562         0.121477      0.242367      1.406844
O       9.54466      2.10460      0.52451         0.056124     -0.210770      0.797733
O       9.56597      2.13070     13.65524        -0.172048     -0.137983     -0.875711
O       9.66401     13.66267      0.52283        -0.207906     -0.235497      0.096602
O       9.61232     13.66808     13.74997        -0.332821     -0.404896      0.226074
O       9.37551      2.08028      5.05171         0.158331      0.202871     -0.719008
O       9.47374     13.58837      5.03692         0.133359     -0.134739     -0.185663
O       9.65619      1.96438      9.25775         0.012484      0.352791      0.946403
O       9.44045     13.60727      9.34952         0.694966     -0.189304      0.535198
O       9.59285      5.85367      0.44746         0.076403      0.232825      1.151217
O       9.52313      5.95831     13.73142        -0.032971     -0.045525     -1.107498
O       9.45206      5.88800      4.87870         0.227711     -0.133757      1.287758
O       9.65706      5.85929      9.15218        -0.011925      0.098969     -0.048227
O       9.62609      9.84031      0.54421         0.309932     -0.485052      1.180802
O       9.63978      9.56023     13.68501        -0.599968      0.297138     -0.218119
O       9.27898      9.83332      5.04391         0.769087     -0.647447     -0.341474
O       9.68045      9.70680      9.28742        -0.047135     -0.009189      0.884687
O       3.80988      1.73348      2.82851        -0.730256      1.384310     -0.812037
O       3.81162      1.89989     15.80296        -0.801383      0.519114      0.172974
O       3.84737     13.33062      2.80974        -0.751077      0.650328     -0.535885
O       3.84471     13.61844     15.84794        -0.306201     -0.454894     -0.361436
O      15.33238      2.13939      2.92153        -0.333595      0.267946     -0.985469
O      15.25768      2.13662     15.88074         0.280516      0.118731     -0.224393
O      15.28901     13.72463      2.77650        -0.472834      0.070285     -0.389853
O       0.02136     13.52525     15.94537         0.224958     -0.302174     -0.861402
O       3.85247      2.02395      7.11385        -0.297078     -0.413999     -0.655806
O       3.79278     13.43992      7.04280        -0.164366     -0.153624     -0.185642
O      15.29868      2.08408      7.35953         1.234582      0.271022     -1.158386
O      15.29884     13.59641      6.98884         0.384334      0.320218      0.177033
O       3.80841      1.95269     11.51924        -0.213257      0.104459     -0.283442
O       3.86784     13.63771     11.65597        -1.266554     -0.310584      0.057138
O      15.31691      2.12435     11.43246        -0.235155      0.469745     -0.502823
O      15.25561     13.67247     11.46823         1.030202     -0.281338     -0.104564
O       3.84971      5.83745      2.76654        -0.535802     -0.076746     -0.000067
O       3.76396      5.77380     15.57888         1.323151     -0.040518      0.861828
O       0.00776      5.70662      2.63119        -0.910551      0.171581     -0.178610
O       0.08700      5.76751     15.82094        -1.432540      0.044694      0.330950
O       3.81495      5.89087      7.18126         0.528688     -0.472010     -1.018173
O       0.00819      5.88134      7.05884        -0.936764     -0.511938      0.051171
O       3.93171      5.80176     11.53450        -0.708415      0.046028     -0.331537
O       0.00558      5.65973     11.41267         0.160887     -0.009460      0.466358
O       3.81102      9.65370      2.68888         0.242294      0.473755     -0.032963
O       3.84438      9.67087     15.78659        -0.020133     -0.000012     -0.019255
O      15.24725      9.80423      2.77190        -0.135189     -0.667016     -0.333030
O       0.01696      9.58285     15.64674        -0.181843     -0.017233      0.632993
O       3.81377      9.65184      6.91140        -0.132327      0.042983      0.248532
O      15.30176      9.81243      7.01674        -0.165141     -0.224852      0.202321
O       3.83475      9.62960     11.51274         0.524364     -0.004840     -0.343285
O      15.31854      9.84395     11.37993         0.856681      0.663844      0.005100
O       7.60994      2.04825      2.67336         0.375840      0.017491      0.460932
O       7.60114      1.96589     15.84779         0.681826      0.749963     -0.116726
O       7.59217     13.60826      2.63552         1.216497     -0.243916      0.084292
O       7.67494     13.61037     16.10817        -0.497189     -0.268052     -1.093938
O       7.68567      2.01661      7.29554        -0.567738     -0.140134     -0.755000
O       7.63871     13.59858      7.22466        -0.697117     -0.294084     -0.499453
O       7.72419      1.98599     11.40178        -0.109046      0.371611      0.352973
O       7.63677     13.44112     11.53925         0.994071      0.230226      0.071440
O       7.57745      5.97443      2.45887         0.457201     -0.593525      0.646540
O       7.72479      5.87971     15.85247        -0.643413      0.390404     -0.137103
O       7.57851      5.88495      7.24699         0.846860      0.158424     -0.793829
O       7.69961      5.84286     11.42182         0.348316     -0.170809     -0.438455
O       7.72995      9.60141      2.68683        -0.776228      0.388061     -0.072096
O       7.66247      9.63832     16.01259         0.475323      0.216269     -1.029174
O       7.60315      9.69693      7.27268         1.229819     -0.425990     -0.151658
O       7.63759      9.74627     11.32932         0.303844     -0.202543      0.327106
O      11.41770      2.07929      2.85736         0.225594      0.724247     -0.563858
O      11.38164      2.03300     15.78033         1.047636      0.456574      0.222433
O      11.37005     13.65995      2.75383         1.503387     -0.376407     -0.243323
O      11.47875     13.61008     15.94592         0.415665      0.006224      0.108688
O      11.53898      2.08810      7.17289        -1.376402     -0.093672     -0.522082
O      11.49537     13.60039      7.14573        -0.906393     -0.208775     -0.372664
O      11.44744      2.00901     11.55587         0.887492      0.017970     -0.715073
O      11.50569     13.50927     11.39795        -0.394873      0.435391      0.294471
O      11.46962      5.76243      2.74922         0.181592      0.936104     -0.568337
O      11.60020      5.87408     15.78397        -1.299820     -0.011449      0.141312
O      11.45062      5.81755      7.06321        -0.205088      0.159100     -0.131946
O      11.54436      6.08428     11.40824        -0.856135     -0.501121     -0.244175
O      11.44891      9.77857      2.87468         0.688123     -0.096726     -0.603114
O      11.50914      9.73728     15.81855         0.640291      0.350669      0.145057
O      11.45556      9.77974      7.14344        -0.100308     -0.110065     -0.635033
O      11.46637      9.57784     11.66279         0.344617      0.585923     -0.757309
O       1.90227      3.87231      2.74849         0.532321     -0.993270     -0.346985
O       1.76630      3.88963     15.79065         0.585289     -0.025062      0.174853
O       1.83885     15.32633      2.79188         0.035639      0.361308     -0.213947
O       1.83332      0.13616     15.87087         0.185991     -1.252653     -0.161169
O      13.42347      4.07437      2.84387         0.073270     -0.543197     -0.573704
O      13.43513      3.95920     15.92079        -0.017466      0.984144     -0.202516
O      13.32720      0.27340      2.69462         0.227027     -0.415946      0.372113
O      13.36546     15.52518     15.86521         0.060107      1.070680      0.212056
O       1.90151      3.89647      7.11365        -0.235203     -0.655061     -0.325298
O       1.92649     15.33034      7.20323        -0.319198     -0.145549     -1.035690
O      13.50228      4.03338      7.17751        -0.234599      0.515985      0.047450
O      13.38337     15.50021      6.99643         0.245720     -0.295491      0.202064
O       1.91303      3.86796     11.45376         0.157254     -0.282752      0.057914
O       1.86530      0.11865     11.49871        -0.010462     -0.770392     -0.106437
O      13.27968      4.02333     11.43948         0.398048     -0.770188     -0.335271
O      13.42615     15.51198     11.33673        -0.414967      0.640800      0.127185
O       1.85750      7.71262      2.65752         0.190076     -0.237301      0.173623
O       1.98906      7.77199     15.85894        -0.694160     -0.224638     -0.679909
O      13.29201      7.77243      2.65404         0.231026      0.657977      0.076052
O      13.43926      7.82297     15.81328         0.029141      0.614313      0.148375
O       1.90461      7.70851      6.90203         0.108791      0.528397      0.741423
O      13.28946      7.84294      7.15065         0.279992      0.035931     -0.360325
O       1.85540      7.69548     11.43567         0.563349     -0.164302     -0.016353
O      13.56438      7.87204     11.42089        -0.403731     -0.530416      0.210776
O       1.72317     11.54319      2.59251         0.393354     -0.371813      0.151689
O       1.91094     11.57847     15.77655         0.148888      0.456524     -0.258110
O      13.45307     11.75093      2.82139        -0.940101     -0.494908     -1.100023
O      13.39336     11.77098     15.91402         0.334340     -1.417728     -0.112648
O       1.84691     11.48743      7.07721         0.184238      0.719934      0.038789
O      13.37914     11.64106      6.90855        -0.003948      0.689756      0.488925
O       2.06578     11.63820     11.50799        -0.817243     -0.820906     -0.438011
O      13.29698     11.68453     11.47870         0.720009     -0.275885     -0.054621
O       5.60685      3.88661      2.65461         0.693722      0.394304      0.239067
O       5.71713      3.94695     15.75567         0.130491      0.356914      0.460489
O       5.75199     15.43049      2.79328        -0.284553     -0.379164     -0.355541
O       5.86119      0.16631     15.88797        -0.671051     -1.494029     -0.052799
O       5.78579      3.90089      7.18061        -0.147300      0.483763     -0.987135
O       5.65872     15.43495      7.16994         0.437341     -0.724293     -0.491004
O       5.75583      3.84411     11.43806         0.215590      1.485280      0.397889
O       5.76194     15.41134     11.55581         0.289005      1.397595     -0.193621
O       5.78792      7.75624      2.72674        -0.570874      0.669299     -0.122662
O       5.77552      7.71799     15.95020        -0.322263      0.177003     -0.544382
O       5.84034      7.81164      7.32348        -0.886655     -0.999633     -1.144995
O       5.73652      7.74006     11.41130         0.378516      0.508468     -0.192419
O       5.83013     11.63422      2.74955        -0.110305     -0.993420     -0.170765
O       5.79655     11.53713     15.83266        -0.133920      0.955445     -0.094602
O       5.83817     11.54859      7.22458        -0.860513      1.243763     -0.864027
O       5.71292     11.63985     11.69017         0.084994     -1.279225     -0.931236
O       9.44908      4.05177      2.59802        -0.016931     -1.518245      0.700234
O       9.45861      3.96071     15.82472         0.546059      0.630737     -0.171429
O       9.56434     15.49333      2.88771        -0.362124      0.435608     -0.819523
O       9.52120     15.47240     15.90559         0.091065      0.968169      0.115248
O       9.49228      4.00139      7.27922         0.593476     -0.286109     -1.436349
O       9.46243      0.16382      7.21427         1.104828     -0.702845     -0.681655
O       9.72400      3.99425     11.54078        -1.030708      0.222460     -1.478356
O       9.62305     15.42047     11.58817        -0.168355      0.413340     -0.532663
O       9.61676      7.75375      2.75877         0.090576      0.729774     -0.194236
O       9.67027      7.84379     15.89556        -0.288970     -0.672197     -0.220667
O       9.61773      7.81321      7.30200        -0.497848     -0.705398     -1.570420
O       9.56424      7.75695     11.53827        -0.450151     -0.122085     -0.631680
O       9.51525     11.65692      2.76241         0.191202      0.497480     -0.363661
O       9.57164     11.69067     15.87400        -0.148311     -1.021620     -0.086121
O       9.46514     11.61470      7.27366         0.285429      0.703249     -0.663861
O       9.66567     11.56916     11.53875        -0.250291      0.259440     -0.187669
