  # total energy = -7881.83943482 
CRSYTAL
PRIMVEC
    15.3600000000000000    0.0000000000000000    0.0000000000000000
     0.0000000000000000   15.3600000000000000    0.0000000000000000
     0.2400000000000000    0.0000000000000000    17.440000000000000
PRESSURE
0.592968 1.08109 -0.989673 -0.093924 -1.05189 -0.00776
PRIMCOORD
320 1
Pb       3.89352      3.75380      4.37823         0.064582      0.494007     -0.097996
Pb       4.13833      3.84756     17.37856        -0.116010      0.001698     -0.457037
Pb       3.98359      0.01307      4.34306        -0.522390     -0.390978     -0.261850
Pb       3.70285      0.01508      0.00815         0.313997     -0.221211     -0.476499
Pb      15.34721      3.87663      4.37914        -0.007607     -0.524082      0.279412
Pb       0.28649      3.83311     17.36239        -0.518892      0.033962     -0.229079
Pb       0.08143      0.15005      4.38935        -0.209174     -0.429701     -0.089360
Pb      15.48143     15.26843     17.43501        -0.078087      0.092001     -0.158084
Pb       4.00209      3.76870      8.70872        -0.000082     -0.820941     -0.047761
Pb       3.94612      0.00041      8.70148         0.187445      0.279664      0.148951
Pb       0.18607      3.78130      8.77259         0.050414     -0.012392     -0.822894
Pb      15.42845     15.31197      8.70367        -0.024347     -0.517393     -0.145675
Pb       4.05812      3.79141     13.01279        -0.099336     -0.002987     -0.029365
Pb       3.97734     15.32890     13.06173        -0.420768     -0.106521     -0.294764
Pb      15.47327      3.92460     12.94568        -0.079902     -0.250080      0.109023
Pb      15.53694      0.16334     13.04897         0.103381     -0.471150     -0.253748
Pb       3.85534      7.69724      4.34937         0.007032     -0.491009     -0.428701
Pb       3.93635      7.70941     17.40142         0.054192     -0.423615      0.229449
Pb       0.09527      7.59241      4.29504        -0.082927      0.103097      0.069434
Pb      15.26398      7.72028      0.00623         0.180520     -0.213505     -0.592844
Pb       3.93657      7.62586      8.70689        -0.010496      0.535087     -0.529342
Pb      15.40745      7.61849      8.56955         0.271942      0.869924      0.039206
Pb       3.93783      7.73616     13.12067         0.676622     -0.432913     -0.529110
Pb      15.51179      7.62019     12.93287         0.027403      0.394768      0.363640
Pb       3.92871     11.45890      4.34233        -0.255873      0.210025     -0.426347
Pb       3.99702     11.52315     17.27640        -0.536245     -0.098435      0.565814
Pb       0.10558     11.56271      4.46764        -0.099670     -0.014920     -0.329666
Pb      15.54302     11.46296     17.39364         0.242261      0.245450     -0.412647
Pb       3.90141     11.48949      8.71160        -0.154588     -0.107124     -0.127728
Pb      15.42171     11.54636      8.71405        -0.104048     -0.227071     -0.219107
Pb       4.07218     11.58168     12.99788        -0.413931     -0.170076      0.054815
Pb       0.29364     11.55868     13.04109        -0.376204     -0.231704     -0.183877
Pb       7.78234      3.95783      4.34670         0.039930     -0.344416     -0.618251
Pb       7.85628      3.82069     17.36082        -0.020080     -0.332878     -0.261130
Pb       7.71507     15.30657      4.32690         0.015227      0.544858     -0.701957
Pb       7.51545     15.30518      0.00373         0.591644     -0.134007     -0.389223
Pb       7.85712      3.80464      8.66386        -0.539073     -0.094024      0.574443
Pb       7.71864      0.04633      8.78036        -0.175859      0.300849     -0.413184
Pb       7.90159      3.75664     13.07795        -0.296338      0.156323      0.061273
Pb       7.95996     15.14107     13.20742         0.003041      0.322512     -0.456036
Pb       7.67850      7.72516      4.31021         0.225104     -0.250914     -0.460370
Pb       7.88264      7.61172     17.40397        -0.307963     -0.124780     -0.189321
Pb       7.83123      7.69924      8.57163        -0.277976      0.317526      0.765077
Pb       7.74489      7.64448     13.10669        -0.032905      0.060388     -0.564336
Pb       7.56063     11.58926      4.39381         0.063932     -0.400697     -0.721127
Pb       7.90153     11.39318     17.31239         0.159781      0.630128      0.717994
Pb       7.89186     11.56586      8.68219        -0.317762     -0.531204     -0.411676
Pb       7.72484     11.43303     13.07961         0.452719     -0.052725     -0.718265
Pb      11.51089      3.86064      4.22955         0.181187     -0.503962      0.328698
Pb      11.66901      3.82348      0.01147         0.275368     -0.202196     -0.409193
Pb      11.50166     15.30717      4.26166         0.228608      0.481961      0.238314
Pb      11.39964     15.13153      0.00725         0.152496      0.744088     -0.235264
Pb      11.52283      3.78831      8.68340         0.281932      0.254764     -0.664315
Pb      11.59684     15.30278      8.68850        -0.140986     -0.062172     -0.669175
Pb      11.67818      3.86026     13.00812         0.104623     -0.021326      0.071831
Pb      11.74772      0.18494     13.04288        -0.501134     -0.614550      0.411686
Pb      11.53205      7.66798      4.20769        -0.240273     -0.297487      0.085205
Pb      11.47488      7.68238      0.01773         0.631683     -0.485835     -0.037560
Pb      11.63725      7.62767      8.66302         0.154039      0.142765     -0.293026
Pb      11.54973      7.66622     12.97461         0.140821     -0.663328      0.369985
Pb      11.47550     11.52648      4.42116         0.295342      0.026004     -0.138956
Pb      11.90216     11.33611     17.42514        -0.370422      0.706001      0.511192
Pb      11.59496     11.50472      8.77846         0.520163      0.146946     -0.780668
Pb      11.71662     11.54892     13.04387        -0.376651      0.238724     -0.391793
Ti       1.95714      1.89436      2.30313        -0.581969     -0.102416      0.514265
Ti       2.06209      1.87222     15.45223        -0.551973      0.569046     -1.783930
Ti       1.96487     13.36041      2.35327         0.180929      0.503016      1.372731
Ti       2.10007     13.46267     15.38139        -0.851327     -0.556892     -0.216740
Ti      13.47217      1.78170      2.25992        -0.615985      1.708312     -1.221579
Ti      13.58330      1.90495     15.40702         0.282113     -0.318939      1.268678
Ti      13.56306     13.37360      2.39454        -1.052636      0.336101     -0.775687
Ti      13.61535     13.45276     15.33647         0.602465      0.324363      0.115024
Ti       1.96877      1.75346      6.68998         0.843338      1.275979     -0.052029
Ti       2.04694     13.36619      6.61070        -0.340091      0.424867     -0.218736
Ti      13.55858      1.87548      6.64285        -1.006516      0.653344      0.686062
Ti      13.47201     13.42678      6.67150        -0.068524     -0.464804      0.102313
Ti       2.04043      1.93119     11.04513         0.501729     -1.180108     -0.515621
Ti       2.01537     13.37511     11.00730        -0.261701      0.756304      0.753338
Ti      13.58896      1.83200     10.85079        -0.377077      0.283829      1.202740
Ti      13.53888     13.37430     11.15699         0.313074      0.148607     -1.721751
Ti       1.87340      5.65564      2.33405         1.429317      1.026377     -0.257996
Ti       2.17806      5.71562     15.33320        -1.010333      0.056527      0.898864
Ti      13.44681      5.66649      2.31138        -0.012336     -0.554216     -0.881812
Ti      13.73888      5.77125     15.33498        -0.319730     -0.439465      0.585708
Ti       2.14914      5.72979      6.71148        -1.887700      0.011149     -0.199563
Ti      13.63055      5.71114      6.68000        -1.241242     -0.715918     -0.510416
Ti       2.10639      5.75608     11.02106         0.950131     -0.552082      1.717920
Ti      13.60663      5.78594     10.88982        -0.989755     -0.704966      0.208565
Ti       1.93730      9.51701      2.28471        -0.216036      0.291534      0.741511
Ti       2.11785      9.56027     15.32930        -0.453638      0.130901      0.950758
Ti      13.46713      9.59366      2.41976         0.081530     -0.522486     -0.276754
Ti      13.58407      9.58831     15.31173         1.599972     -1.032063      0.588179
Ti       2.05406      9.60640      6.65114        -0.717022      0.135281      0.376093
Ti      13.51017      9.53435      6.52448        -0.025778      0.859369      0.195318
Ti       2.11855      9.55772     11.09117        -0.994824      0.937281     -2.084705
Ti      13.50111      9.53733     11.12856         1.377866      1.043788     -0.738613
Ti       5.79080      1.93736      2.30829         0.781640      0.401391     -0.565125
Ti       5.96913      1.83448     15.39557        -0.188763      0.488370     -1.195323
Ti       5.77670     13.43425      2.23999        -0.769480     -0.055995      1.287580
Ti       5.90778     13.33227     15.39208         0.384079      2.327540     -0.572783
Ti       5.84490      1.92001      6.65152        -0.293923     -0.940526      1.218342
Ti       5.80496     13.38782      6.65228        -0.557207      0.535232      0.889247
Ti       5.89444      1.84088     11.18760        -0.524773      0.456192     -2.692018
Ti       5.86236     13.39762     11.02458         0.123136      0.132830      0.715815
Ti       5.71417      5.71684      2.18066         0.018249      0.788065      0.766162
Ti       5.94608      5.72088     15.33218         0.282612      0.069034      0.404695
Ti       5.90567      5.69612      6.69059         0.173889      0.312491     -0.567012
Ti       5.94428      5.68788     10.95909        -0.176721      0.389295      1.336165
Ti       5.77558      9.56644      2.30319         0.084833      0.196582      0.199552
Ti       5.95519      9.54221     15.47587        -0.351947     -0.497909     -1.333823
Ti       5.84996      9.54058      6.64295        -0.074562      0.585940     -0.009511
Ti       5.90143      9.53938     10.95838         0.165391     -0.221296      0.262489
Ti       9.63091      1.87528      2.13589        -0.307480      0.421152      0.578731
Ti       9.81235      1.90819     15.49697         0.952675     -1.234303     -1.000480
Ti       9.68118     13.37796      2.34143        -0.519210      0.695567     -0.409928
Ti       9.79030     13.34759     15.37209        -0.316759      1.555933     -0.717565
Ti       9.64505      1.93816      6.65914         0.888293     -0.127819      0.155432
Ti       9.61436     13.45786      6.64661         1.538153      0.334027      1.228692
Ti       9.69814      1.89428     11.09290         0.306044     -0.552523     -0.657884
Ti       9.73501     13.45950     10.97525         0.118307     -0.230404      0.917300
Ti       9.60094      5.71227      2.11872        -0.418395      0.409419      2.591907
Ti       9.86828      5.72241     15.50204         0.406617     -0.217292     -1.440636
Ti       9.72580      5.80978      6.66975         0.397886     -0.820684      0.170067
Ti       9.73769      5.72478     11.03208         0.750594     -0.088355     -0.462365
Ti       9.58789      9.66225      2.31017        -0.079864     -0.814025      1.788188
Ti       9.83942      9.56571     15.43483        -0.328408     -0.280329     -1.481482
Ti       9.70305      9.57230      6.59874         0.030207      0.515613     -0.479719
Ti       9.75392      9.60213     11.05899        -1.238839      0.166959     -0.115548
O       1.80100      1.94419      0.52342         0.727576      0.019353      0.301715
O       2.03066      1.86934     13.62344         0.299267     -0.204685      0.158234
O       1.80242     13.37307      0.63181         0.278198      0.094361     -1.002449
O       2.17698     13.43341     13.62170        -0.362018      0.297648     -0.039659
O      13.50445      1.87763      0.40682        -0.117797     -0.072348      1.498789
O      13.40970      1.84491     13.68463         0.605224      0.110045     -1.667659
O      13.55593     13.37986      0.54453        -0.197704     -0.168244      1.528411
O      13.51969     13.38025     13.54996         0.299685     -0.114186      0.433854
O       1.91797      1.89861      4.93337         0.233155      0.017856     -0.290401
O       2.13155     13.43182      4.82577        -0.415544     -0.331988      0.302803
O      13.59699      1.94617      4.90595        -0.033151     -0.430617     -0.620814
O      13.40233     13.46067      4.92015         0.189675     -0.174993     -0.479316
O       2.11938      1.79242      9.28929        -0.678133      0.252316     -1.054666
O       1.94587     13.38724      9.27044         0.161972     -0.241356     -0.686023
O      13.70353      1.75751      9.11784        -0.579770      0.324019     -0.249518
O      13.55598     13.31601      9.31310        -0.006326      0.388274      0.603170
O       1.88312      5.68238      0.56226         0.046475     -0.280227      0.033121
O       2.02255      5.79938     13.61369         0.226404     -0.075669     -1.434308
O      13.52191      5.49185      0.50682        -0.099835      0.663677      0.729528
O      13.70113      5.67156     13.57129         0.016238      0.327076     -0.302709
O       1.96534      5.72693      4.97941         0.271216      0.276316     -1.052644
O      13.48876      5.74365      4.90742         0.479618     -0.172441     -0.453985
O       2.00224      5.71541      9.33498         0.323009      0.610592     -2.544377
O      13.53896      5.80210      9.11105         0.332759      0.106782     -0.002391
O       1.84384      9.49504      0.53249         0.431605      0.281789     -0.318645
O       2.14317      9.38856     13.59459        -0.002152      0.336987     -0.806032
O      13.37028      9.60785      0.60873         0.170607      0.208429      0.409237
O      13.58202      9.63029     13.58099        -0.378463     -0.132614     -0.486373
O       1.97156      9.47505      4.86115         0.093508      0.439446      0.470155
O      13.59265      9.54804      4.72305        -0.232786     -0.160166      0.710728
O       2.03706      9.76756      9.24841         0.397016     -0.972274      1.504975
O      13.42965      9.56432      9.39475         0.111293     -0.055079     -1.175692
O       5.73327      1.99315      0.49299        -0.053854     -0.172785      0.204361
O       5.86778      2.04191     13.58350        -0.001089     -0.679608      0.262275
O       5.66274     13.54134      0.52465         0.020469     -0.444616     -1.376630
O       5.83390     13.45433     13.58546         0.260366     -0.351460      0.596155
O       5.91485      2.01435      4.89348         0.076548     -0.593879     -0.563267
O       5.78053     13.52576      4.88919         0.276812     -0.314294     -0.195617
O       5.74387      1.83774      9.19655         0.486923     -0.010935      2.073859
O       5.78874     13.41978      9.27838         0.482148     -0.108709      0.053147
O       5.50979      5.86548      0.41872         0.676626     -0.741925     -0.072146
O       6.10781      5.72590     13.59249        -0.355105      0.023295     -0.375384
O       6.01045      5.73665      4.92574        -0.098575     -0.144252      0.166652
O       5.80803      5.61331      9.21338         0.049186      0.402012     -0.285973
O       5.87971      9.70365      0.51503        -0.448292     -0.355469      0.165463
O       6.00429      9.52989     13.66720        -0.200441      0.183352      1.188252
O       5.81990      9.65217      4.85101         0.083729     -0.404535      0.108098
O       6.03985      9.56851      9.20947        -0.672706     -0.015713     -0.675751
O       9.50912      1.92172      0.34091         0.180549     -0.123568      0.803669
O       9.97382      1.85535     13.63695        -0.624070      0.175809      0.473969
O       9.66668     13.45127      0.59625        -0.231143     -0.327146     -0.569125
O       9.66668     13.45277     13.56228         0.315478     -0.348574      1.331744
O       9.55138      2.03071      4.91051        -0.241106     -0.329752      0.239973
O       9.68530     13.37494      4.90148        -0.365933      0.344934     -1.015558
O       9.75081      1.90523      9.28632        -0.122092      0.127178      0.777963
O       9.83200     13.38955      9.21231        -0.573846      0.220922     -0.601343
O       9.69360      5.78040      0.40085        -0.267838     -0.323680     -1.082664
O       9.93728      5.72266     13.67207        -0.217758     -0.047344      1.018052
O       9.55062      5.74510      4.91614         0.065718      0.139708     -0.068223
O       9.87678      5.61268      9.24908        -0.498548      0.519767      0.263760
O       9.59874      9.72610      0.59125        -0.126243     -0.211745     -1.834656
O       9.79314      9.63158     13.64453         0.182012     -0.394851      0.541379
O       9.70375      9.46758      4.80271        -0.319363      0.467021      0.900616
O       9.75138      9.55200      9.29245        -0.206405      0.176814      0.016819
O       3.91277      1.94058      2.79234        -0.550703     -0.031318     -0.412724
O       4.09348      1.81812     15.74280        -1.058735      0.167108      0.564008
O       3.87324     13.47128      2.70135         0.073203      0.135032     -0.038846
O       3.97861     13.39964     15.81519         0.180662      0.711557      0.340703
O      15.33714      1.86030      2.74319         1.227587      0.659547     -0.243465
O      15.49243      1.85130     15.60067         1.072120      0.537591      0.587876
O      15.35773     13.44216      2.92674         0.825148     -0.076406     -0.457944
O      15.55729     13.35347     15.86460        -0.410908     -0.243125     -0.459846
O       3.90158      1.93101      7.04803         0.013654      0.426713     -0.132787
O       3.90087     13.26445      7.09693         0.917294      0.279536     -0.062418
O       0.10828      1.82705      7.05036         0.437062     -0.214667      0.444506
O       0.13069     13.31662      7.02601        -0.369452      0.739467     -0.165980
O       3.89501      1.90427     11.28519         1.239287      0.125811      1.340872
O       3.92130     13.39420     11.42647         1.383204     -0.191039      0.068672
O      15.44223      1.94175     11.23854         0.130337     -0.222426      0.928180
O      15.46107     13.40115     11.45724         0.416042     -0.465333      0.347187
O       3.90188      5.82945      2.71459        -0.172769     -0.324511      0.202554
O       4.04069      5.67540     15.66346         0.233578      0.008590      0.187419
O      15.38457      5.63024      2.80475        -0.166717      0.196102     -0.391000
O       0.27498      5.78906     15.74786        -0.718770     -0.367791      0.296744
O       3.95861      5.65362      7.01743         1.078942      0.474224      0.514373
O       0.13208      5.88740      7.00377        -0.303089      0.048842      0.443044
O       4.07903      5.72005     11.50390        -0.498945     -0.063009     -0.337431
O       0.26447      5.74793     11.41418        -1.793589      0.365346     -0.116112
O       3.84284      9.52542      2.79385         0.838571      0.076799     -0.546477
O       4.03905      9.51658     15.83711        -0.074072      0.819038     -0.095813
O       0.05457      9.48489      2.63540        -0.176248      0.392694      0.310561
O       0.26744      9.63252     15.75354        -1.038065     -0.615526      0.040406
O       3.95317      9.60350      7.11229         0.201035      0.057076     -0.076639
O      15.42610      9.59874      7.07088        -0.385941     -0.389825     -0.387291
O       4.05489      9.64728     11.42992        -1.071840     -0.528208      0.163365
O       0.17316      9.62275     11.48215         0.177071     -0.566021      0.117023
O       7.72592      1.91077      2.51430        -0.069995      0.195852      0.428782
O       7.89327      1.91124     15.59950        -0.430564      0.177439      0.725392
O       7.61708     13.34602      2.63123         1.407373      0.344545      0.512760
O       7.83191     13.36547     15.80472         0.117601     -0.420721     -0.210854
O       7.76129      1.81123      7.24937        -0.338582      0.274388     -0.698631
O       7.77499     13.56302      7.08687        -0.713578     -0.628226     -0.034360
O       7.79423      1.87856     11.40185         0.429025      0.119958      0.193616
O       7.86114     13.47026     11.45004        -1.629162     -0.181773     -0.198727
O       7.70566      5.71591      2.43612         0.440922     -0.238576      0.049389
O       7.85556      5.75380     15.77908         0.656556     -0.225979      0.496675
O       7.78002      5.82184      7.22606        -0.147775     -0.574208     -0.576083
O       7.90954      5.66368     11.40063        -1.259143      0.294469     -0.003881
O       7.69087      9.72540      2.77005         0.086452     -0.083191     -0.150054
O       7.92229      9.59606     15.80318        -0.363142      0.142703      0.141578
O       7.74137      9.59357      7.08099         0.789689     -0.111214     -0.245600
O       7.68027      9.56026     11.47301         2.573722      0.220352      0.377530
O      11.51819      1.88800      2.64906         0.027200     -0.321269     -0.188965
O      11.71983      1.68825     15.80837         0.010304      0.204603      0.449504
O      11.56497     13.47155      2.69194         0.612132     -0.034939      0.265140
O      11.73162     13.54137     15.77878         0.081624     -0.870050     -0.298645
O      11.58900      1.94979      6.95519        -0.099733      0.161906      0.480648
O      11.56433     13.43034      7.04730         0.132171      0.148611      0.349185
O      11.72950      1.79208     11.39079        -0.523336      0.763928     -0.534730
O      11.61831     13.45393     11.34403         0.295786     -0.387288      0.534794
O      11.55040      5.73166      2.73236        -0.597897      0.268681     -0.515628
O      11.82604      5.88277     15.89875        -0.748218     -0.515266     -0.319450
O      11.63315      5.69751      6.99538        -0.804900     -0.007996      0.388948
O      11.66959      5.65000     11.32260         0.544642      0.967861      0.378610
O      11.50419      9.58438      2.76745         0.903470     -0.104806     -0.279891
O      11.74559      9.46812     15.93298        -0.369098      0.279821     -0.712420
O      11.55971      9.62293      6.96750         0.709906     -0.274957      0.037407
O      11.59940      9.55731     11.43556        -0.101507      0.342834      0.504232
O       2.05160      3.87237      2.86366        -0.334982     -1.410622     -0.496450
O       2.04947      3.78295     15.67366         0.582123      0.108338      0.538630
O       2.01142      0.05328      2.72567        -0.186062     -0.051397     -0.192664
O       1.95991     15.34134     15.83087         0.980119     -0.100800      0.251084
O      13.30923      3.73772      2.63113         0.864283      0.229654      0.379335
O      13.60662      3.82433     15.69104        -0.068809      0.101670      0.297354
O      13.47547      0.01523      2.80143        -0.024158     -1.269180     -0.231178
O      13.84928     15.29325     15.80202        -1.061004     -0.711089     -0.497692
O       1.89272      3.92653      7.11342         0.240213     -1.378098      0.344447
O       2.19225     15.27307      6.94702        -0.778591      0.244456      0.332448
O      13.57940      3.78251      6.94890         0.556832      0.548262      0.757394
O      13.49625     15.32466      7.07207         0.311305     -0.136134      0.196383
O       2.04316      3.79260     11.22719        -0.010847      0.675455      0.859104
O       2.08640     15.22906     11.39887        -0.495271      1.425138      0.547889
O      13.55156      3.94761     11.27035         0.710101     -1.542425      0.037505
O      13.63764     15.30631     11.42217         0.028821      0.891120     -0.221691
O       2.02633      7.60516      2.67193        -0.637443      0.124673      0.340775
O       2.20169      7.62247     15.84526        -0.309348      0.397697     -0.268617
O      13.53386      7.54317      2.47026        -0.259267      1.084681      0.755213
O      13.73576      7.64319     15.76152        -0.087590      1.063028      0.134725
O       2.10641      7.76361      7.07533         0.011078     -1.035522      0.582524
O      13.36694      7.64963      6.89438         0.712934      0.953877      0.665413
O       2.16652      7.65546     11.43318        -0.007433      0.187339     -0.098024
O      13.53682      7.67905     11.30370         0.316469     -1.469557      0.795099
O       2.03296     11.50679      2.70514        -0.509714     -0.668511      0.123673
O       2.03333     11.53809     15.59040         0.977621     -0.977181      0.742349
O      13.49370     11.49084      2.81872         0.065234      0.137626     -0.321083
O      13.61643     11.42151     15.81104        -0.193664      0.742732     -0.260804
O       2.00958     11.53183      7.10516         0.071829     -1.251548     -0.376544
O      13.48272     11.51567      6.99003         0.050255     -1.001998      0.049534
O       2.07938     11.46883     11.44442         0.120343      0.041683      0.585321
O      13.54369     11.43218     11.41064        -0.249277      1.094726      0.800514
O       5.75354      3.88989      2.67142         0.130832     -0.695732     -0.117335
O       5.97814      3.84412     15.71014        -0.107397     -0.568104      0.707221
O       5.85939      0.04204      2.66738        -0.281022     -0.310873      0.251073
O       5.97444     15.29292     15.80171        -0.060537      0.385483      0.014544
O       5.86831      3.75860      6.98328         0.345143      0.935251      0.476883
O       5.68232     15.31237      7.06211         0.632379     -0.065100     -0.222480
O       5.92689      3.77726     11.47782        -0.055339      0.574360     -0.068391
O       5.82411      0.01567     11.48325         0.170085     -1.132481     -0.032418
O       5.93010      7.65864      2.67737        -0.394446      0.547732     -0.132443
O       5.89587      7.68863     15.76357         0.537971     -0.260134      0.166306
O       5.84515      7.62602      6.91335        -0.220161      0.319599      0.770670
O       5.93996      7.65928     11.44111        -0.143460     -0.964473     -0.290424
O       5.74270     11.51473      2.74939        -0.252943     -0.155800     -0.084754
O       5.77932     11.55857     15.75073         0.862737     -1.812843      0.233358
O       5.88046     11.47269      6.92031         0.374203      0.664381      0.401649
O       5.90189     11.47039     11.48422         0.191839      1.110510     -0.266530
O       9.67297      3.80932      2.72609        -0.274593      0.412438     -0.936289
O       9.95244      3.75612     15.79515        -0.434913      1.245337      0.104697
O       9.66165      0.02038      2.69109        -0.595750     -0.467596      0.110942
O       9.70216     15.25571     15.86124        -0.011612     -0.131032     -0.047270
O       9.55159      3.91033      7.14823         0.630566     -0.892886     -0.474395
O       9.73664      0.04616      7.04499        -0.207958     -0.544988      0.003920
O       9.75659      3.82222     11.50101         0.190078     -0.947268     -0.100915
O       9.67219     15.32545     11.48566         0.284874      0.812137     -0.282201
O       9.57543      7.68710      2.58702         0.146202     -0.465091     -0.046084
O       9.71774      7.60329     15.76854         0.439911      1.221711      0.462521
O       9.67501      7.69969      7.04789         0.150730     -0.176755      0.197625
O       9.79792      7.64861     11.46919        -0.514018      0.098802     -0.158494
O       9.76326     11.56072      2.71021        -0.539250     -0.705963      0.336739
O       9.86775     11.47181     15.68987         0.144827     -0.052741      0.515047
O       9.75088     11.51246      7.00574        -0.962279     -0.054291      0.221721
O       9.66493     11.54468     11.35020         0.213627     -0.940018      0.255165
