  # total energy = -7879.90205729 
CRSYTAL
PRIMVEC
    15.3600000000000000    0.0000000000000000    0.0000000000000000
     0.0000000000000000   15.3600000000000000    0.0000000000000000
     0.2400000000000000    0.0000000000000000    17.440000000000000
PRESSURE
1.31326 1.47018 5.22445 -0.1106 -0.909433 0.019512
PRIMCOORD
320 1
Pb       3.96898      3.94716      4.28712        -0.278672     -0.341175     -0.178065
Pb       4.09441      3.79138     17.36829         0.002122      0.381474      0.077342
Pb       4.03516     15.24610      4.45221        -0.670634      0.083524     -0.715667
Pb       3.68569     15.35266      0.06188         0.178512      0.112449     -0.658502
Pb      15.31763      3.81172      4.21494         0.153074      0.230381      0.199520
Pb       0.09690      3.83744      0.06792        -0.230392     -0.063470     -0.516401
Pb      15.33934      0.15450      4.44242         0.368627     -0.555202     -0.392457
Pb      15.07982     15.23351      0.09906         1.397802      0.024636     -0.695441
Pb       4.13862      3.63449      8.57368        -0.760996      0.557650      0.400050
Pb       3.83217     15.34140      8.94173         0.728164     -0.472129     -1.210928
Pb      15.38761      3.81694      8.54515         0.571715      0.142615      0.062725
Pb      15.45682     15.33335      8.68330        -0.106126     -0.093099     -0.594077
Pb       3.91163      3.82576     13.07090         0.413985     -0.274237     -0.446729
Pb       4.13880      0.01687     13.14196        -0.515499      0.012562     -0.381889
Pb       0.19976      3.84759     13.04323        -0.442243     -0.101715     -0.207602
Pb       0.26878      0.23922     12.99826        -0.828767     -0.894371      0.367545
Pb       3.78258      7.67243      4.28529         0.555029     -0.282014     -0.311907
Pb       3.87796      7.64508     17.30728         0.844188     -0.255200      0.132948
Pb      15.36923      7.65377      4.33487        -0.467575     -0.142085     -0.746540
Pb      15.53571      7.85164     17.32212         0.030110     -1.177264     -0.341362
Pb       3.86200      7.65370      8.71584         0.234108      0.381184     -0.553562
Pb      15.35781      7.69177      8.73217         0.507586     -0.489464     -0.697546
Pb       4.06457      7.82160     12.79207        -0.416523     -0.766253      0.764910
Pb      15.26902      7.66917     13.12749         0.801724      0.123244     -0.512843
Pb       3.76834     11.46315      4.39054         0.657319      0.034468     -0.490164
Pb       3.88372     11.64141      0.23899        -0.256879     -0.438673     -0.948940
Pb       0.24199     11.58051      4.38443        -0.916276      0.063018     -0.670165
Pb       0.27029     11.41773     17.42739        -0.030876      0.902921     -0.851802
Pb       3.83581     11.53723      8.74842         0.638927     -0.470826     -0.404163
Pb      15.40598     11.36161      8.62685         0.250230      0.303990     -0.362545
Pb       4.01601     11.45369     13.09381        -0.258878      0.129322     -0.847874
Pb       0.33596     11.54052     12.93443        -0.937906     -0.259232      0.500198
Pb       7.66463      3.85697      4.16307         0.325844     -0.171822      0.006853
Pb       7.81964      4.01158      0.00203        -0.526164     -0.722735     -0.423163
Pb       7.73155      0.17504      4.28505         0.138159     -0.952473     -0.378418
Pb       7.77251     15.22140     17.27673         1.044328      0.839914     -0.007499
Pb       7.71884      3.84280      8.64518         0.466818      0.109719      0.057416
Pb       7.88284      0.00422      8.67473        -0.388122      0.098584      0.110202
Pb       7.85233      3.51853     13.12810         0.089059      1.296147      0.587072
Pb       7.79148     15.28297     13.04637         0.775493      0.183221      0.487526
Pb       7.71452      7.81928      4.14194        -0.487913     -0.706905      0.657100
Pb       7.81389      7.59222     17.43426         0.165393      0.422275     -0.496005
Pb       7.87604      7.65223      8.80598        -0.442772     -0.462965     -0.486693
Pb       7.82709      7.59838     13.09177         0.244459     -0.147547     -0.443573
Pb       7.55829     11.48842      4.20893         0.495468      0.227653      0.314807
Pb       7.82341     11.42842     17.40692         0.330209     -0.280963      0.170592
Pb       7.83039     11.59967      8.77544        -0.239413     -0.624564     -0.486888
Pb       7.85051     11.42618     13.02954         0.390922     -0.339637     -0.124548
Pb      11.52938      3.84446      4.21777        -0.044594     -0.094248     -0.274187
Pb      11.75084      3.83612     17.38414        -0.050740     -0.275783     -0.296138
Pb      11.51237     15.32205      4.36917        -0.032574     -0.032448     -0.394429
Pb      11.80134     15.13107     17.24338        -0.785934      0.718791     -0.041299
Pb      11.53770      3.79227      8.61344        -0.213825      0.013753     -0.224429
Pb      11.48616     15.22261      8.74680         0.459769      0.537260     -0.511758
Pb      11.74802      3.94499     13.14683         0.044828     -0.726901     -0.353949
Pb      11.74383     15.34603     13.04319         0.104077      0.371430      0.144560
Pb      11.51279      7.70019      4.49006         0.582299      0.066363     -1.094699
Pb      11.87617      7.69429     17.36967        -0.679579      0.100837     -0.128798
Pb      11.57591      7.60805      8.52348        -0.137225     -0.385776      0.717753
Pb      11.59918      7.55058     13.16585         0.489277      0.524347     -0.690682
Pb      11.38206     11.55655      4.24303         0.976748     -0.312480      0.003998
Pb      11.73442     11.35599     17.42907         0.079581      0.263950     -0.175302
Pb      11.67375     11.49947      8.55452        -0.569024     -0.008100      0.469963
Pb      11.71840     11.67585     12.96668         0.390686     -1.216667      0.573909
Ti       1.97226      1.93759      2.36151         0.275227     -0.707919      0.378815
Ti       2.13818      1.91953     15.42806        -0.419431     -0.639766      1.716630
Ti       1.96782     13.49956      2.31616        -0.153785      0.299540      0.981984
Ti       2.21307     13.41303     15.36279        -0.609226      0.188527      3.208951
Ti      13.45444      1.85242      2.25981        -0.289270      0.382492      0.745952
Ti      13.73251      1.85490     15.44031        -0.669139      0.348283      0.764280
Ti      13.46835     13.48537      2.37340         0.021763     -1.663925      2.925594
Ti      13.74127     13.32444     15.24902         0.360092      0.416059      0.405176
Ti       2.06732      1.89145      6.63663        -0.226580     -0.008949      1.264797
Ti       2.08848     13.43197      6.69829        -0.011857     -0.132645      1.291806
Ti      13.49294      1.84053      6.76414        -0.483622     -0.135089      0.742574
Ti      13.54137     13.41179      6.61346         0.153792      0.117741      1.305799
Ti       2.04614      1.91787     10.90589         0.497574      0.058187      0.885963
Ti       2.01226     13.48707     11.03221         0.245578     -0.768198      1.239580
Ti      13.54124      1.95022     10.99316         0.665670     -0.043471      1.541111
Ti      13.60951     13.44035     10.96669         0.446035     -0.188318      2.207894
Ti       1.91281      5.74967      2.21646         0.518650     -0.113383      0.093242
Ti       2.11858      5.72654     15.27027        -0.179169      0.116206      3.103719
Ti      13.41711      5.77935      2.23106         0.485252      0.505996      2.361281
Ti      13.71587      5.67472     15.44359        -0.095724      0.645873      2.711573
Ti       2.04626      5.71399      6.62888        -0.225069     -0.101406      1.881391
Ti      13.53147      5.66691      6.58903        -0.139478      0.388106      0.582697
Ti       2.04371      5.68231     10.95746        -0.125743      0.831207      0.966154
Ti      13.64903      5.73605     10.92667        -0.889120      0.016268      2.077209
Ti       1.88893      9.54158      2.19906         0.521813      0.560177      1.464463
Ti       2.16171      9.58683     15.36870        -0.075513      0.280552      0.250097
Ti      13.46390      9.58758      2.28198        -0.428005      0.598993      4.640146
Ti      13.65086      9.62625     15.24940        -0.666603     -0.541247      0.154195
Ti       2.03540      9.52438      6.64382         0.383020      0.498848      2.269214
Ti      13.43092      9.51437      6.66751         1.302736      0.546227     -0.416900
Ti       2.02270      9.50802     11.04529        -0.137030      0.578468      0.737174
Ti      13.55632      9.61329     11.02788         0.317544     -0.051663      3.841272
Ti       5.73554      1.88902      2.18947         0.135233     -0.369726      0.296287
Ti       5.94467      1.96309     15.43824         0.924110     -0.237147      0.535383
Ti       5.77601     13.41330      2.20638         0.714733     -0.381121      1.998740
Ti       6.01606     13.31795     15.39385        -1.153950      0.687155      1.490871
Ti       5.90455      1.75669      6.58816        -0.428461      0.745839      1.326215
Ti       5.93540     13.38901      6.74117        -1.141006     -0.264835      2.800193
Ti       5.97446      1.87877     11.09661        -1.018286      0.205784      1.509408
Ti       5.85823     13.34574     11.07539        -0.157083      0.734670      0.814706
Ti       5.84238      5.71451      2.21455        -0.877880      0.630971      1.080848
Ti       5.96311      5.74488     15.30630         0.494708     -0.073293      0.538898
Ti       5.85720      5.75148      6.69512         0.676149      0.141852      0.075779
Ti       5.90852      5.61022     11.11076         0.852416      0.638343      1.977322
Ti       5.67922      9.56512      2.30681        -0.393164     -0.161636     -0.541587
Ti       5.89394      9.57117     15.34505         0.803132     -0.520427      1.432508
Ti       5.94073      9.57892      6.75560        -0.759985      0.552330      2.095365
Ti       6.01727      9.54694     10.97841        -0.316214      0.147780      0.702699
Ti       9.66873      1.84241      2.11633        -0.709153      0.190018      1.065162
Ti       9.84250      1.88417     15.46627        -0.176658     -0.901793      1.042771
Ti       9.58944     13.42083      2.20815         0.639894     -0.077610      1.994001
Ti       9.87927     13.23317     15.33705        -0.375870      1.410588      1.601011
Ti       9.64687      1.93246      6.52474         0.784024     -0.152335      2.031259
Ti       9.69368     13.38441      6.63440         0.122909      0.003061      0.344504
Ti       9.80950      1.91653     11.08162        -0.164574     -0.505135      2.462911
Ti       9.71525     13.39016     11.10763         0.408188      0.251128      1.473221
Ti       9.65255      5.80916      2.34049         0.329326     -0.330163      1.856583
Ti       9.85666      5.79017     15.38982        -0.735708      0.032219      2.710194
Ti       9.68330      5.71135      6.47547        -0.882859      0.056857      0.699597
Ti       9.71300      5.59795     11.10034         0.309788      0.871327      1.533310
Ti       9.65990      9.57503      2.27378         0.456772      0.477781      0.777044
Ti       9.75552      9.56542     15.42457         0.007176     -0.802207      1.325801
Ti       9.69126      9.51349      6.59190        -0.777024      1.029072      1.276374
Ti       9.86712      9.50901     11.06959         0.104354     -0.231581      2.775838
O       2.03323      1.82241      0.62067        -0.302982      0.299554     -0.468367
O       2.06548      2.01985     13.71659        -0.060337     -0.108207     -1.498995
O       1.97974     13.55048      0.57950        -0.207678     -0.385187     -0.142242
O       2.19977     13.39654     13.67108         0.056835     -0.062688     -1.663019
O      13.53641      1.75518      0.55003        -0.308532      0.202481     -0.794182
O      13.73949      1.87923     13.71059         0.105821      0.025130     -0.752253
O      13.40257     13.54659      0.69939        -0.019335     -0.155381     -2.810621
O      13.77000     13.38004     13.52043        -0.157375      0.101357      0.094328
O       2.11360      1.84103      4.92142        -0.271689      0.172099     -0.653624
O       2.13247     13.43170      4.96563        -0.102730     -0.222406     -1.001728
O      13.35475      1.77481      5.06866         0.306781      0.124175     -2.204116
O      13.72140     13.49168      4.91431        -0.763572     -0.097979     -1.250401
O       2.14437      1.77204      9.14190        -0.347584      0.412936      0.405894
O       2.01308     13.57673      9.29805        -0.246025     -0.219397     -0.827008
O      13.65984      2.06271      9.27418        -0.601007     -0.274750     -1.215357
O      13.57533     13.47992      9.25207        -0.047939     -0.147612     -1.428941
O       1.98923      5.78104      0.43830        -0.322696     -0.243239      1.162222
O       1.92460      5.70398     13.59026         0.326882     -0.344237     -1.230395
O      13.50226      5.79617      0.53374        -0.176539      0.169147     -1.311714
O      13.66288      5.78498     13.75177         0.065197     -0.243729     -1.777229
O       2.11167      5.82060      4.91630        -0.266449     -0.000743     -1.099531
O      13.33174      5.69859      4.85976         0.637409      0.086987     -0.164852
O       1.86225      5.74417      9.23507         0.497801      0.068696     -0.318880
O      13.65413      5.68894      9.19147        -0.263774      0.000212     -0.485016
O       1.97554      9.63969      0.45841        -0.369724     -0.302376     -0.558621
O       2.20713      9.61769     13.63234         0.069952      0.163550     -0.666050
O      13.42400      9.55798      0.63204         0.087721     -0.085875     -3.959899
O      13.63103      9.46058     13.51964         0.007022      0.450506      0.035746
O       2.18389      9.60408      4.93098        -0.484350     -0.318889     -1.153192
O      13.31735      9.51305      4.97239         0.558055     -0.085539     -1.263645
O       1.92181      9.62651      9.32160        -0.203300     -0.303172     -1.184458
O      13.59277      9.62000      9.35703         0.062046     -0.302032     -4.171204
O       5.61071      1.90130      0.44699         0.441986     -0.133222      0.305013
O       5.96469      2.01499     13.64383        -0.428141     -0.734733     -0.008975
O       5.98220     13.25615      0.51080        -0.931253      0.500465     -1.096783
O       5.79523     13.39457     13.66120         0.260508     -0.226116     -0.260922
O       5.90342      1.84637      4.85901        -0.161633     -0.097331     -0.961556
O       5.76284     13.51086      5.08389         0.099130     -0.332273     -3.024463
O       5.80582      1.92989      9.40007         0.269153     -0.223795     -1.528512
O       5.97690     13.43971      9.36369         0.133489     -0.078799     -0.837532
O       5.79406      5.83515      0.51268        -0.005698     -0.280913     -0.989343
O       6.15200      5.66624     13.56137        -0.722858      0.270003      0.248979
O       5.92012      5.64824      4.95806        -0.249819      0.181640     -0.544984
O       6.18531      5.58248      9.43911        -0.871025      0.230543     -2.210401
O       5.64651      9.61055      0.56143         0.107061     -0.204810      0.369498
O       5.87753      9.55383     13.59286         0.089520      0.371556     -0.578025
O       5.80352      9.70777      5.06038        -0.091046     -0.474351     -1.993628
O       6.02118      9.66638      9.26781         0.189169     -0.183425     -0.703901
O       9.66640      1.82102      0.37771        -0.190817      0.335676      0.232312
O       9.72820      1.96168     13.74233         0.304807     -0.118468     -0.946880
O       9.80955     13.38221      0.51338        -0.268264     -0.169582     -1.350271
O       9.75334     13.13123     13.63647        -0.089140      0.393200     -1.318350
O       9.74078      1.82666      4.80367        -0.307732      0.045242     -0.512819
O       9.64260     13.50008      4.90184         0.098021     -0.099144      0.081346
O       9.68622      1.97543      9.41237         0.361395     -0.014043     -2.270598
O       9.77603     13.55197      9.39180        -0.184315     -0.443969     -1.115881
O       9.56119      5.77725      0.65651         0.096840     -0.078820     -2.266558
O       9.72845      5.78323     13.70899         0.374679     -0.097389     -2.018730
O       9.77254      5.75889      4.69281        -0.590641     -0.158093      1.086301
O       9.72560      5.52835      9.38327         0.002857      0.388978     -1.099471
O       9.80747      9.60981      0.55089        -0.473556     -0.008872     -0.393626
O       9.62812      9.56337     13.72992         0.362820      0.004275     -1.565124
O       9.62684      9.49799      4.88046        -0.071151      0.249219     -1.243823
O       9.88100      9.39092      9.39148        -0.063584      0.019821     -2.189596
O       3.84053      2.05688      2.66839         1.158686     -0.258786      0.299573
O       4.06280      1.96800     15.82978        -0.099105     -0.083614     -0.260485
O       3.91839     13.40558      2.68070        -0.274203     -0.015966     -0.101362
O       4.08971     13.31619     16.00470        -0.148116      0.325088     -0.780716
O       0.05104      1.85375      2.75839        -0.665118      0.001977      0.185269
O       0.23108      1.92311     15.92576         0.208106     -0.107330     -0.170766
O       0.06161     13.44121      2.71491         0.333280      0.067978      0.243209
O      15.56194     13.38212     15.94944         0.516886     -0.043183     -0.441214
O       4.02850      1.87246      7.04088        -0.780120     -0.043634      0.105971
O       3.99874     13.45740      7.25783        -0.891029     -0.087095     -0.241311
O       0.13776      1.93670      7.03375        -0.403886     -0.754561     -0.027699
O      15.41641     13.42240      6.96651         0.726865     -0.347353      0.694150
O       3.95509      1.91469     11.45645         0.051000     -0.302728      0.083973
O       3.95167     13.43063     11.40568         0.172307      0.360057      0.082220
O      15.48062      1.94657     11.35260         1.022974     -0.101122      0.102375
O      15.46773     13.38630     11.51018         1.132961      0.737308     -0.774847
O       3.90524      5.69080      2.69772        -0.543352     -0.230475     -0.045631
O       4.05378      5.71279     15.71867         0.089063      0.022216     -0.481812
O       0.04032      5.73513      2.78936        -0.525779      0.459668     -0.208117
O       0.23363      5.68723     15.96751        -0.026860      0.274385     -0.794555
O       3.95558      5.71196      7.04051         0.016505      0.423286      0.445818
O      15.43152      5.79405      6.98749        -0.229275     -0.096356     -0.292083
O       4.00373      5.65858     11.51348        -0.410869      0.354656     -0.626426
O       0.16337      5.74666     11.42932        -0.618355     -0.252435     -0.139759
O       3.76233      9.53008      2.75657         0.660976      0.170642     -0.102200
O       4.05363      9.48810     15.73945        -0.120538      0.181486     -0.012436
O       0.04355      9.52770      2.69071         0.177069      0.336347      0.233165
O      15.56896      9.49287     15.64920         0.304194      0.567870      0.535904
O       3.96716      9.58883      7.26952        -0.265425     -0.425862     -0.146581
O       0.11783      9.60184      6.90760        -0.544351     -0.061315      0.600000
O       3.98996      9.63250     11.25477         0.291925     -0.490666      0.584753
O       0.17070      9.59252     11.53440        -0.195481     -0.292304     -0.281199
O       7.72061      1.79794      2.71434        -0.248754      0.968168     -0.704281
O       7.85848      1.82446     15.76637         0.053215      0.507297      0.253198
O       7.77506     13.18142      2.62779        -1.438201      1.038772     -0.164456
O       7.90044     13.37094     15.74149        -0.110633     -0.417862     -0.101356
O       7.78670      1.88681      7.07344         0.053589     -0.206253     -0.410105
O       7.83514     13.43408      7.18421         0.316480     -0.212764     -0.004866
O       7.85610      1.89109     11.46390        -0.246227     -0.456837      0.067906
O       7.88823     13.38806     11.56790        -0.659697     -0.206705     -0.282496
O       7.72431      5.79869      2.67613        -0.644698     -0.152715      0.166809
O       7.91622      5.71648     15.91515         0.057742      0.280520     -0.257387
O       7.76063      5.75651      7.21873         0.543753     -0.132894     -0.749039
O       7.88978      5.76093     11.47525        -0.119372      0.028428      0.177985
O       7.61741      9.69384      2.71057         0.304811     -0.655527     -0.292993
O       7.87264      9.70258     15.82932        -0.801152     -0.605304     -0.043792
O       7.87688      9.80777      7.15779        -0.325496     -1.112786     -0.067938
O       7.90816      9.51261     11.42183        -0.363178      0.415871     -0.011804
O      11.49826      1.93613      2.56691         0.596006     -0.234111      0.269808
O      11.80077      1.92843     15.78520        -0.236948     -0.251423      0.152286
O      11.57719     13.42143      2.82752        -0.817811      0.410182     -0.115350
O      11.80969     13.37972     15.54978        -0.442057     -0.143296      0.491783
O      11.53459      1.88995      7.13665        -0.082485      0.405049      0.012021
O      11.58761     13.46810      7.12518         0.021886     -0.021484     -0.174863
O      11.73306      1.95624     11.58005        -0.632944     -0.201326     -0.373064
O      11.72757     13.47968     11.58181        -0.627574     -0.024957     -0.873745
O      11.56575      5.93323      2.71784         0.212138     -0.963946     -0.458998
O      11.75941      5.80645     15.91231         0.055990     -0.084039     -0.495615
O      11.51887      5.74130      6.99282         0.559275     -0.303450      0.091155
O      11.71567      5.66455     11.51737         0.182467      0.048733     -0.092738
O      11.55605      9.55297      2.73411        -0.560353     -0.075960      0.014903
O      11.70543      9.63219     15.80500         0.760286     -0.535696     -0.221961
O      11.58491      9.42100      7.05196        -0.653248      0.507022      0.452814
O      11.77142      9.72404     11.60098        -1.328246     -0.942501     -0.510510
O       1.78648      3.89007      2.72766         0.771022     -0.591759     -0.140630
O       2.11838      3.78160     15.93859         0.181308      0.741357     -0.528931
O       2.08829      0.00712      2.84846        -0.327998     -0.179415     -0.318659
O       2.24290     15.33785     15.75347        -0.058851     -0.141257     -0.086722
O      13.50391      3.77449      2.63788        -0.330951      0.568175      0.135235
O      13.59834      3.82989     15.87941         0.489629     -0.143906     -0.167531
O      13.42966      0.00688      2.78000         0.244702      0.492534      0.300133
O      13.71237     15.27458     15.79990        -0.058393     -0.000088     -0.220795
O       1.96061      3.83915      7.01682         0.616135     -0.369537     -0.127997
O       2.04584     15.29882      7.13025        -0.123613      0.464503     -0.184073
O      13.51390      3.76670      6.96636        -0.046875      1.195631      0.462473
O      13.45339     15.31678      7.06232         0.498168     -0.187551      0.507077
O       2.06384      3.78637     11.44911        -0.086143      0.040665     -0.338506
O       2.05490      0.02347     11.49108         0.128825      0.314873     -0.444156
O      13.61722      3.82614     11.61610         0.090470      0.428783     -0.729078
O      13.63437      0.01634     11.45102        -0.142963      0.298725     -0.259221
O       1.94006      7.64904      2.56424         0.073625     -0.115565      0.520250
O       2.14112      7.61275     15.70337        -0.258937      0.354168      0.153022
O      13.48808      7.67128      2.79953         0.388892     -0.236915     -0.211589
O      13.68756      7.73870     15.74699        -0.055885     -0.672477      0.487244
O       2.04314      7.67839      7.19125        -0.011124     -0.439805     -0.348093
O      13.45923      7.62881      7.04159         0.504683     -0.579124      0.293915
O       2.03603      7.61593     11.45685         0.510742      0.120394     -0.531748
O      13.54532      7.66957     11.41366         0.322335     -1.134438     -0.210155
O       1.96762     11.49177      2.72953        -0.083684      0.139632     -0.011434
O       2.07948     11.49154     15.86039         0.288598     -0.251813     -0.216551
O      13.38974     11.51001      2.66877         0.620808     -0.184019      0.236287
O      13.70149     11.44593     15.75919         0.140520      0.469462      0.192339
O       2.09651     11.45625      7.05747        -0.398040      0.721612      0.176793
O      13.36104     11.43503      7.01461         0.797115      0.671478      0.224250
O       2.04774     11.53588     11.40493         0.372055      0.076214     -0.020259
O      13.65284     11.49851     11.30232        -0.035991      1.011543      0.215406
O       5.86370      3.74966      2.52487         0.206270      0.926090      0.652919
O       6.06091      3.88014     15.81813        -0.409701     -0.524786      0.014779
O       5.80339     15.26595      2.66537         0.047022      0.679374     -0.039708
O       5.94155     15.31888     15.91629        -0.342364     -0.532247     -0.986701
O       5.81552      3.78993      7.03941         0.713513     -0.114748      0.133611
O       5.86206     15.30482      7.11700         0.516027      0.655374      0.064326
O       5.93647      3.77054     11.50119        -0.009132     -0.482597      0.084452
O       5.98082     15.27213     11.62026        -0.503597      0.712197     -0.492176
O       5.69889      7.59556      2.68628         0.524247      1.094810      0.246714
O       6.09386      7.64668     15.79330        -0.453870      0.347674     -0.391591
O       5.91541      7.70006      7.20220         0.054537     -0.594881     -0.040115
O       5.99577      7.64840     11.37231        -0.541438      0.105666     -0.042233
O       5.67197     11.48701      2.65361         0.073777     -0.087316      0.512831
O       5.88144     11.43613     16.01354         0.318131      0.338899     -1.194988
O       5.81329     11.49854      7.15106         0.517636      0.435030      0.372647
O       5.85887     11.51659     11.45065         0.664647     -0.859755      0.194690
O       9.59296      3.88053      2.71314         0.255274     -0.892787     -0.444573
O       9.86187      3.88282     15.88587         0.024217     -0.339742     -0.002491
O       9.53217     15.32799      2.64283         0.645138     -0.141762     -0.145861
O       9.79107     15.30052     15.74521         0.457217     -0.754397     -0.093665
O       9.63604      3.85763      6.99315         0.213532     -0.594830     -0.408179
O       9.73073      0.03367      7.19058        -0.418831     -0.394047     -0.618818
O       9.72774      3.75178     11.59286         0.465103      0.496994     -0.047201
O       9.73924      0.00215     11.50332         0.346314     -0.575639      0.270785
O       9.56206      7.72792      2.73447        -0.015723      0.110398     -0.128153
O       9.70466      7.63915     15.94419         0.661064      0.463868     -0.515816
O       9.66385      7.61488      6.95658        -0.232304     -0.065622      0.332339
O       9.88739      7.62312     11.68259        -0.429528      0.093180     -0.998984
O       9.64258     11.48649      2.73663         0.292889     -0.246130     -0.141173
O       9.79500     11.41282     15.89110         0.426047      1.377665      0.017667
O       9.81727     11.46944      7.03010         0.092103      0.618463      0.057780
O       9.78954     11.42221     11.46431        -0.172587      1.096523     -0.226980
