  # total energy = -7881.70032685 
CRSYTAL
PRIMVEC
    15.3600000000000000    0.2300000000000000    0.0000000000000000
     0.0000000000000000   15.3600000000000000    0.0000000000000000
     0.0000000000000000    0.0000000000000000    17.440000000000000
PRESSURE
0.663543 0.892936 1.73371 0.203106 0.145542 -1.55519
PRIMCOORD
320 1
Pb       3.84958      3.95286      4.15442         0.407723     -0.316117      0.176004
Pb       3.76230      3.96687     17.43281         0.313029     -0.432270     -0.106447
Pb       3.78711     15.27500      4.32702         0.221928      0.207371     -0.193427
Pb       3.78805     15.40356      0.01588        -0.008456     -0.186151     -0.183588
Pb       0.18047      3.93361      4.39852        -0.905498     -0.589117     -0.395623
Pb       0.06285      3.82156      0.11214        -0.293937     -0.409904     -0.678130
Pb      15.21919      0.31668      4.34800         0.421458     -0.618407     -0.648162
Pb      15.26813     15.56692      0.04366        -0.169329      0.046307     -0.152076
Pb       3.81687      3.82372      8.53429         0.025225      0.031988      0.122533
Pb       3.76797     15.30223      8.62777        -0.188592      0.759289     -0.258929
Pb       0.07943      3.90652      8.64112        -0.086931     -0.711005     -0.177573
Pb       0.02843     15.19305      8.62150         0.058592      1.147323      0.162736
Pb       3.97041      3.87265     13.11163        -0.082192      0.025439     -0.344914
Pb       3.69681      0.19172     13.15693         0.274797     -0.870632     -0.612498
Pb      15.32468      4.00119     13.01394         0.524248      0.660414     -0.511035
Pb      15.26875      0.27772     12.99905         0.696509     -0.475067      0.045632
Pb       3.90065      7.74600      4.26813        -0.234548      0.036017     -0.292422
Pb       3.75779      7.71141     17.40594        -0.266680      0.429296     -0.260274
Pb      15.16656      7.78878      4.35278         0.324524      0.689734     -0.181714
Pb      15.32254      7.86655     17.35670        -0.390559      0.329150     -0.278567
Pb       3.86371      7.61529      8.67101         0.108591     -0.225992     -0.043134
Pb      15.28809      7.86029      8.65366         0.259326     -0.055461     -0.063291
Pb       3.81514      7.56895     12.98976        -0.223282      0.509885     -0.235435
Pb       0.00195      7.60470     13.00944        -0.173732     -0.293258     -0.215801
Pb       3.91548     11.38199      4.26508        -0.249181      0.704830      0.333319
Pb       3.88627     11.54052     17.36511        -0.341270      0.141882     -0.336522
Pb       0.01473     11.38046      4.30248        -0.174926      0.304526     -0.001708
Pb       0.06859     11.67530     17.37657        -0.500532     -0.489283     -0.004395
Pb       3.77113     11.42363      8.71165         0.188905     -0.049468     -0.242119
Pb      15.35304     11.72031      8.54212         0.225602     -0.241628      0.318634
Pb       3.80958     11.53939     13.03694        -0.180706      0.420791     -0.205334
Pb      15.29919     11.76011     12.92386         0.205556      0.053023      0.188720
Pb       7.63402      3.89194      4.31148        -0.278970      0.014771     -0.286592
Pb       7.61872      4.07892     17.40279        -0.164470     -0.513212     -0.561868
Pb       7.67989     15.34629      4.30114        -0.284067      0.273408     -0.107187
Pb       7.79609      0.21050      0.06282        -0.207132     -0.328696     -0.299483
Pb       7.61036      3.81993      8.65755        -0.126379      0.687647     -0.616304
Pb       7.75072     15.32190      8.75887        -0.213840      0.446259     -0.495402
Pb       7.68587      3.93581     12.99730        -0.239737     -0.037134      0.353875
Pb       7.67273     15.33721     13.15105        -0.656164      0.703742     -0.880020
Pb       7.66696      7.73733      4.33459         0.123411      0.196301     -0.244805
Pb       7.69601      7.74238      0.00948        -0.038093      0.563177     -0.803224
Pb       7.70501      7.86562      8.78766        -0.089328     -0.532382     -0.611448
Pb       7.66553      7.80265     13.05186         0.371767     -0.253712      0.086153
Pb       7.73016     11.66873      4.44276         0.105321     -0.020368     -0.733249
Pb       7.53242     11.62911     17.38586         1.277256     -0.015163     -0.427008
Pb       7.58756     11.61549      8.83955         0.213375     -0.463483     -0.545296
Pb       7.64206     11.72132     13.21048        -0.242589     -0.454023     -0.958176
Pb      11.44473      4.14999      4.43510         0.182209     -0.596304     -0.592089
Pb      11.47884      4.01665      0.03918         0.122797     -0.248424     -0.616070
Pb      11.53019      0.21343      4.43348        -0.222263     -0.254576     -1.012560
Pb      11.44667      0.23124     17.40210         0.393542     -0.483889      0.171495
Pb      11.41414      3.75784      8.72451         0.308548      0.424753     -0.778283
Pb      11.52545     15.49063      8.66213         0.012406      0.070347     -0.141410
Pb      11.44684      3.95073     13.03852         0.103157      0.105743     -0.110695
Pb      11.57463      0.28410     13.01021        -0.097563     -0.036321     -0.250132
Pb      11.45960      7.79597      4.30584         0.126536      0.448185     -0.313107
Pb      11.48794      7.82787     17.36886         0.166532      0.023557     -0.736203
Pb      11.56576      7.76995      8.72956        -0.487373      0.265166     -0.082033
Pb      11.42974      7.81774     13.09393         0.139875      0.046272     -0.150064
Pb      11.55430     11.62451      4.20942        -0.331367     -0.119089      0.412015
Pb      11.49539     11.71662     17.33706        -0.446735      0.301298     -0.624153
Pb      11.40004     11.69509      8.77845        -0.119193     -0.304235     -0.376069
Pb      11.57468     11.76687     12.99772         0.053402     -0.378978     -0.277348
Ti       1.90720      1.97151      2.30442         0.349641     -0.355862      1.308751
Ti       1.92247      1.90211     15.53382        -0.650027     -0.049114      1.256070
Ti       1.87427     13.41295      2.42995         0.447287      0.922250      0.628003
Ti       1.87167     13.40520     15.37236         0.087191      0.815738     -0.821078
Ti      13.40176      2.19061      2.43784        -0.094292     -1.104484     -1.057750
Ti      13.37682      2.14960     15.39296         0.446346     -0.243955      2.248871
Ti      13.41361     13.57850      2.38332         0.285027      1.536445     -0.876678
Ti      13.37788     13.71721     15.26302         0.031618     -0.709688      0.444865
Ti       1.82799      1.90856      6.43821         0.833716      0.036864      1.987977
Ti       1.90790     13.45517      6.54802         0.292909     -0.324462     -0.347963
Ti      13.36203      2.08839      6.60653         0.757115      0.931368      2.510902
Ti      13.40751     13.63189      6.70643         0.048760     -0.172034      0.724703
Ti       1.97395      1.90624     10.98359         0.045810      0.529229      0.837034
Ti       1.89069     13.38355     10.87202         0.655660      0.851494      1.712581
Ti      13.52192      2.12511     10.97252        -0.509174     -0.378765     -1.368075
Ti      13.48538     13.67289     10.90969        -0.267579     -0.149843      2.237433
Ti       1.88092      5.83535      2.32887         0.158904     -0.383133     -0.433985
Ti       1.84021      5.73693     15.41833         0.031296     -0.314150     -0.264128
Ti      13.43639      5.89796      2.32260        -0.344070     -0.013203      0.501055
Ti      13.45067      5.92530     15.31342        -0.732559      0.101792     -0.298714
Ti       1.86727      5.73618      6.48793         0.976365     -0.477810      2.560750
Ti      13.41274      5.92799      6.57418        -0.283052     -0.489084      2.139942
Ti       1.95061      5.74039     10.97900        -0.496226     -0.546291      1.200568
Ti      13.32226      5.91602     11.02734         1.486655      0.055435      1.506156
Ti       1.91519      9.61664      2.30231         0.003410     -0.775450      0.869661
Ti       1.80478      9.56546     15.37349         0.217297      0.757574     -0.798654
Ti      13.41496      9.70774      2.17530         0.347552      0.637297      0.101427
Ti      13.36872      9.86511     15.31256         1.001387     -0.269872     -0.049589
Ti       1.86151      9.51044      6.68188         1.019661      0.096365     -0.184049
Ti      13.35373      9.80854      6.69796        -0.119914     -0.677691      0.277346
Ti       1.84509      9.57552     11.06029         1.219700     -0.535154     -0.545718
Ti      13.48908      9.70406     10.97176        -1.426530      0.718138      0.686277
Ti       5.73611      1.94137      2.27435        -0.195324      0.258891      0.161533
Ti       5.73925      2.02675     15.62344         0.159461      0.244866      0.885303
Ti       5.71611     13.40410      2.26642         0.207312      0.738947      1.880381
Ti       5.71486     13.54045     15.37149        -0.269048      0.561370     -0.055637
Ti       5.62414      1.95783      6.55354         0.525150     -0.043365      0.095201
Ti       5.76962     13.52149      6.74990        -0.285763     -0.377946     -0.376301
Ti       5.72564      1.96738     10.93579         0.512435      0.205015      1.153369
Ti       5.70083     13.57235     10.99057         0.074868     -0.554484      3.982474
Ti       5.78339      5.88525      2.16429         0.154965     -0.422829      1.109280
Ti       5.62403      5.99371     15.43140         1.111281     -2.086613     -0.165570
Ti       5.77246      5.82266      6.51511         0.692898     -0.108785      1.918796
Ti       5.81237      5.81435     11.00843        -0.287327     -0.297867      0.097176
Ti       5.81895      9.65120      2.15581         0.522498      0.150878     -0.390202
Ti       5.70596      9.69892     15.31047         0.554158      0.833957      1.210071
Ti       5.68902      9.64167      6.66871         0.856841     -0.127550      2.944080
Ti       5.72866      9.67584     11.18996        -0.527870      0.480446     -0.270260
Ti       9.57152      2.09740      2.43404         0.225913     -0.334271     -0.470523
Ti       9.58249      2.10701     15.40538        -0.512182     -0.306006      0.009876
Ti       9.61051     13.55437      2.34423         0.023066      0.124346      0.010243
Ti       9.53947     13.64597     15.25028         0.945664     -1.109570      2.635429
Ti       9.47830      1.96343      6.54946         0.053960      0.753391      1.916223
Ti       9.57635     13.55686      6.62200         0.414576     -0.621855      0.560416
Ti       9.50829      2.03669     10.91781         0.721319      0.352670      1.692619
Ti       9.64813     13.67455     11.09797        -0.925859     -0.685536      0.245444
Ti       9.53801      5.91982      2.26294         0.569202     -0.028275      1.686669
Ti       9.53403      5.88098     15.36013         0.243780      0.260904     -1.227203
Ti       9.65459      5.91238      6.66568        -2.050516     -0.135603      1.703166
Ti       9.57732      5.85826     11.03508         0.150512      1.491594      1.381973
Ti       9.58627      9.67281      2.24147         0.345219      1.467264      0.290581
Ti       9.60163      9.74167     15.33140        -0.786265      1.040082      0.816133
Ti       9.57868      9.72810      6.68061        -0.317394      0.641094      1.429977
Ti       9.58164      9.87371     11.12055         0.395499     -0.959318      0.471706
O       2.02555      2.05840      0.57921        -0.444210     -0.196794     -1.283731
O       1.89942      1.82167     13.80714         0.229764      0.289249     -1.115059
O       1.91493     13.36172      0.71085        -0.233830     -0.069985     -1.682474
O       1.88685     13.45335     13.58726        -0.193547      0.246390      0.812125
O      13.37307      2.04299      0.64870        -0.353707      0.576530      0.462553
O      13.32194      2.04836     13.68733         0.531124      0.100662     -1.651833
O      13.42824     13.85272      0.62486        -0.099293     -0.959965      0.297971
O      13.50461     13.75321     13.50004         0.008927     -0.117994     -0.256667
O       1.96750      1.97239      4.70717        -0.135260      0.116446     -0.554187
O       1.94145     13.45839      4.75644         0.009227      0.063488      0.758958
O      13.35004      2.05323      4.90444         0.081686     -0.344067     -1.692463
O      13.60788     13.72720      5.00108        -0.710496     -0.168080     -1.150266
O       1.91247      1.91728      9.28540         0.109518      0.481474     -1.342649
O       1.74863     13.46145      9.11665         0.701431     -0.359303     -0.004998
O      13.52881      2.13586      9.17844        -0.371794      0.230271      0.669097
O      13.49738     13.74907      9.19651        -0.177215     -0.348996     -1.275982
O       1.77264      5.93713      0.55128         0.335231     -0.461165     -0.144874
O       1.88078      5.71639     13.69151         0.012687      0.040245     -1.081284
O      13.48485      5.85920      0.57646        -0.181663      0.141919     -0.331496
O      13.38879      5.92848     13.52638         0.401115     -0.161829      1.068487
O       1.83714      5.78879      4.78581         0.107076      0.057210     -1.865742
O      13.44629      5.93855      4.87357        -0.080796      0.421554     -1.958865
O       1.91369      5.57210      9.25803        -0.219085      0.359737     -1.048421
O      13.36041      5.86500      9.30177        -0.131826      0.111702     -1.263246
O       2.00643      9.58642      0.58576        -0.188463      0.014719     -0.853768
O       1.80839      9.65673     13.59969        -0.189420     -0.341116      0.617463
O      13.44722      9.78502      0.42179        -0.377999     -0.187151      0.322486
O      13.41484      9.77566     13.51506         0.047954      0.364720      0.835250
O       2.01658      9.49843      4.92201        -0.128865     -0.063583     -0.190598
O      13.30759      9.84009      4.94852         0.427316     -0.213491     -0.296278
O       1.89192      9.50287      9.27563        -0.202455      0.187082     -0.219072
O      13.55827      9.62897      9.23793         0.084862      0.143955     -1.411990
O       5.81217      1.87733      0.47919        -0.172547      0.258767      0.872289
O       5.74882      2.09811     13.92358        -0.164823     -0.059723     -2.134247
O       5.86541     13.42715      0.56848        -0.620215      0.181159     -0.997953
O       5.62321     13.51413     13.59350         0.567888      0.059447      0.418698
O       5.62931      2.00056      4.77327         0.149735      0.244654      0.371717
O       5.82874     13.39891      4.99655        -0.154658      0.005018     -0.038261
O       5.71862      2.13881      9.22106         0.005242     -0.791813     -0.626046
O       5.74441     13.67444      9.32484        -0.003311     -0.176556     -3.583058
O       5.91513      6.10816      0.42728        -0.575794     -0.596946     -0.625369
O       5.73460      5.76455     13.70213        -0.349077      0.258414     -0.864628
O       5.89373      5.85445      4.74788        -0.025069      0.219161      0.156656
O       5.89243      5.81962      9.26812        -0.258326      0.049457      0.301074
O       5.90450      9.78915      0.35873        -0.739962     -0.502676      1.117505
O       5.65924      9.88367     13.57728         0.147136     -0.474012     -0.536717
O       5.69512      9.57541      4.98171        -0.096051      0.068406     -2.084675
O       5.73227      9.65944      9.41704        -0.037325      0.023627     -0.212673
O       9.63112      2.09714      0.65045        -0.164844     -0.283612      0.050714
O       9.58991      2.07822     13.64462        -0.095660      0.045427      0.175784
O       9.58723     13.62960      0.59407         0.307206     -0.085860      0.014132
O       9.64565     13.58317     13.52260        -0.489664      0.277761     -1.089262
O       9.54877      2.01256      4.82196        -0.038722      0.281486     -0.681444
O       9.49725     13.49521      4.87755         0.058557     -0.093174     -0.581553
O       9.48614      2.02616      9.16634         0.307421     -0.167888     -0.173659
O       9.60727     13.55997      9.33562         0.066939      0.371957     -0.351006
O       9.48792      6.00123      0.54918         0.399510     -0.156553     -1.564815
O       9.56751      5.89003     13.56211         0.140502     -0.344127      1.112936
O       9.52381      5.98677      4.90526         0.251828      0.101128     -0.346446
O       9.55077      6.13076      9.31871         0.447405     -0.684277     -0.403501
O       9.60385      9.73948      0.50123         0.166960     -0.243696     -0.481676
O       9.72503      9.90109     13.60292        -0.131515     -0.110689     -0.985430
O       9.70167      9.75359      4.95783        -0.259314     -0.185930     -1.036814
O       9.41441      9.82084      9.35721         0.082263      0.178723      0.170841
O       3.82454      2.28009      2.60557         1.046183     -0.757942     -0.206430
O       3.82963      2.06216     16.01647        -0.513294     -0.727085     -0.279814
O       3.81669     13.48572      2.72150         0.870524     -0.605926      0.108030
O       3.77456     13.56154     15.84451         0.036976     -0.675564      0.032560
O       0.01386      1.97100      2.57913        -0.891661     -0.190064      0.653198
O      15.32172      2.15189     15.98386        -0.349743      0.216100     -0.485323
O       0.02201     13.49682      2.73655        -0.706945     -0.191615      0.406501
O      15.28317     13.68026     15.84596         0.440295     -0.004833     -0.075574
O       3.77501      1.91440      7.09398         0.161399     -0.017938     -0.538570
O       3.80384     13.51986      7.12228        -0.212284     -0.186946     -0.312738
O      15.34590      2.18848      6.90862        -0.592382     -0.082738     -0.251552
O       0.00449     13.44611      6.92095         0.072640     -0.157031      0.685032
O       3.89879      2.01845     11.49973        -0.078043     -0.353400      0.182434
O       3.77091     13.48447     11.44096        -0.089863      0.177010     -0.692330
O       0.10817      1.89548     11.39076        -1.308873      0.469177      0.590775
O       0.01480     13.52396     11.30367         0.562229     -0.394269      0.250783
O       3.91827      5.77275      2.57081        -0.312561      0.032182     -0.052918
O       3.73809      5.91509     15.77303         0.658347      0.033429      0.589542
O      15.33861      6.01280      2.77763        -0.116806      0.106312     -0.029594
O      15.33073      5.76316     15.75127        -0.603163      0.637827      0.210305
O       3.87370      5.76892      6.90242         0.102756     -0.142235     -0.134765
O      15.33277      5.83498      6.94706         0.029672      0.109762      0.038280
O       3.88329      5.83863     11.30632        -0.092650      0.211799      0.530920
O      15.29674      5.98822     11.39722         0.298035     -0.382079      0.180729
O       3.93009      9.59096      2.71519        -0.686840     -0.010029     -0.176389
O       3.77672      9.73413     15.82750         0.049125     -0.564940     -0.179012
O      15.33810      9.77436      2.58521         0.507254     -0.252334      0.526301
O      15.28552      9.89706     15.90131         0.464335     -0.263844     -0.473615
O       3.79036      9.48371      7.27255        -0.149195      0.626304     -0.675816
O       0.04498      9.49449      7.04671        -0.857242      0.097870      0.084770
O       3.74645      9.57877     11.53308         0.897782     -0.058334     -0.043020
O      15.34361      9.70454     11.40770        -0.115464      0.618288      0.308764
O       7.66570      1.97455      2.76882        -0.284460     -0.022491     -0.087887
O       7.66181      2.03810     15.96271         0.638080      0.215656     -0.166646
O       7.66576     13.49875      2.72597        -0.514931     -0.023933      0.220712
O       7.64169     13.55053     15.75356         0.299401      0.168101     -0.572531
O       7.66773      1.95291      6.99011        -0.710778      0.259983     -0.084080
O       7.74502     13.47675      7.05282        -1.766773      0.018791      0.717061
O       7.70240      2.14157     11.38109        -0.558340     -0.111572     -0.087215
O       7.63391     13.55997     11.33708         0.835311     -0.171423      0.799632
O       7.69050      6.06926      2.61839         0.040479     -0.493010      0.273669
O       7.63746      5.85825     15.76313         0.483144      0.394841      0.328227
O       7.72368      5.87400      7.19110        -0.566352     -0.018952     -0.952906
O       7.71472      5.88123     11.58230        -0.360653      0.041977     -0.650284
O       7.73668      9.67040      2.66294        -0.800750      0.133761      0.147225
O       7.64803      9.90920     15.72204         0.180100     -0.959954     -0.631531
O       7.57415      9.80876      7.10132         0.492046     -0.081088     -0.192107
O       7.63185      9.75482     11.66903         0.755470      0.131790     -0.411422
O      11.40843      2.19671      2.83423         1.289587     -0.416196      0.257996
O      11.45496      2.07980     15.86151         0.523280      0.047358     -0.029192
O      11.57199     13.60145      2.81347        -0.584024     -0.095550     -0.007620
O      11.47002     13.65571     15.66729        -0.248560     -0.221445      0.186879
O      11.45819      1.96929      7.05011         0.038279      0.130604      0.073760
O      11.46260     13.61327      7.07157         0.954851      0.106462      0.037140
O      11.52070      2.04961     11.31368        -0.357837     -0.099851      0.009450
O      11.55093     13.78528     11.45393         0.113245     -0.347738     -0.489806
O      11.56053      5.84825      2.77153        -0.823033      0.729248     -0.251321
O      11.40718      5.99633     15.78311         1.261487     -0.353821      0.337240
O      11.47138      6.03526      7.10202         0.411621     -0.166276     -0.311766
O      11.55033      5.85730     11.62408        -0.966912      0.195620     -0.916848
O      11.57733      9.71838      2.60921        -0.589949      0.404642      0.270923
O      11.52696      9.72356     15.77599         0.386790      0.057528      0.261255
O      11.49530      9.79194      7.15810         0.363355     -0.365300      0.126959
O      11.51565      9.87451     11.24976         0.049601     -0.019964      0.380810
O       1.82125      3.92763      2.73673         0.327451      0.344179     -0.086246
O       1.95086      3.85174     15.90632        -0.048537      0.041093      0.086541
O       2.04540      0.11325      2.72111        -0.277629     -0.621660     -0.233349
O       1.82231     15.34251     15.89355         0.575495      0.319453      0.144831
O      13.39225      4.03539      2.91953         0.411206      0.109451     -0.452003
O      13.31332      4.01819     15.76606        -0.060127      0.068921      0.091833
O      13.36156      0.21613      2.79995         0.280026      0.416341      0.652155
O      13.34418     15.50037     15.74094         0.345705      1.755376      0.368463
O       1.96360      3.77484      6.96400        -0.322665      0.782275     -0.218301
O       1.89017      0.05300      6.97808        -0.031798     -0.729345     -0.264504
O      13.25210      4.05522      6.88168        -0.001775     -1.053684      0.509195
O      13.44030     15.51764      7.27670        -0.227067      0.294271     -1.398204
O       1.99303      3.90217     11.50033        -0.383247     -0.401106      0.147356
O       2.00129      0.06391     11.28588        -0.021965     -1.202986      0.571493
O      13.40448      3.92641     11.44510         0.297783      0.885986      0.201779
O      13.53897      0.23852     11.41237        -0.375588      0.067968      0.014835
O       2.06564      7.61402      2.72012        -0.505660      1.735751      0.218185
O       1.87405      7.66301     15.69045        -0.572970      0.820830      0.637157
O      13.38674      7.83561      2.72332         0.261457      0.088818     -0.121003
O      13.55506      7.81834     15.69560        -0.407946      0.162435      0.246502
O       1.89953      7.50482      7.01362        -0.155560      1.380650      0.271501
O      13.49195      7.81614      6.94123        -0.091018      0.595128      0.548873
O       1.89019      7.66874     11.44367         0.066059     -0.635076      0.202625
O      13.38071      7.88368     11.33112        -0.184236     -0.902370      0.285997
O       1.94677     11.47258      2.77633        -0.207583     -0.290846      0.001083
O       1.82058     11.53610     15.67954         0.211429      0.072210      0.800871
O      13.48625     11.71170      2.75288         0.088540     -0.758504     -0.319706
O      13.34538     11.79614     15.60692         0.058994     -1.003888      0.365344
O       1.85633     11.52103      6.90248         0.355887     -0.470186      0.415356
O      13.46195     11.64723      7.17561        -0.080241      0.983443     -0.339224
O       1.97670     11.46189     11.42838        -1.016873      1.268576     -0.586539
O      13.48458     11.77032     11.24437         0.071401      0.013546      0.305232
O       5.95397      3.94489      2.61431        -0.213903      0.453590     -0.278847
O       5.67244      4.05857     15.86623         0.123284     -0.560971      0.838416
O       5.64477     15.41777      2.72795         0.269251     -0.131560     -0.343534
O       5.68265     15.42350     15.76124         0.110627     -0.054718      0.446731
O       5.77040      3.81040      7.04923         0.096300      1.274918     -0.547420
O       5.70018      0.09056      6.97896         0.340473     -0.838519      0.460997
O       5.76742      3.90351     11.40632         0.071669      0.224451      0.456438
O       5.91722      0.09584     11.43099        -0.695475      0.866439      0.110763
O       5.80136      7.80523      2.47953        -0.227374     -0.344066      0.786378
O       5.80060      7.84553     15.64591        -0.262174      0.289235      0.342603
O       5.77818      7.68493      7.11343        -0.169115      0.323880     -0.532222
O       5.80800      7.75146     11.51626        -0.140116     -0.308572      0.130114
O       5.72073     11.47910      2.72548         0.301812      0.947806     -0.119757
O       5.74167     11.63304     15.81198        -0.601312      0.374086     -0.080791
O       5.60516     11.58394      7.20342         0.126691     -0.102728     -0.152993
O       5.73036     11.63269     11.38304        -0.161840     -0.156337      0.175830
O       9.64011      4.07178      2.72942        -1.003707     -0.300996      0.122899
O       9.61573      3.96413     15.85935        -0.258720      0.532144      0.011771
O       9.61786     15.45886      2.84440        -0.009561      0.226199     -0.287944
O       9.59117     15.50273     15.79198        -0.488928      0.224273     -0.157811
O       9.54323      3.97987      7.12457         0.749731     -0.187731     -0.567105
O       9.49177     15.45254      6.98768         0.480045     -0.084309      0.225498
O       9.63045      4.02613     11.46843         0.022771     -1.246419     -0.690076
O       9.45019      0.20337     11.47289         0.387930     -0.241140     -0.153061
O       9.64957      7.84914      2.64582         0.372484     -0.727413      0.513065
O       9.64258      7.85510     15.58103        -0.657295     -0.250643      0.722375
O       9.53415      7.91187      7.17876         0.189495     -0.617601     -0.367332
O       9.70638      7.81307     11.55857        -0.759116      0.566386     -0.330388
O       9.64144     11.66494      2.76995         0.001513     -0.672836     -0.165354
O       9.60513     11.65985     15.79226         0.480301      0.873058     -0.080379
O       9.66280     11.66879      7.18835        -0.432496     -0.263048     -0.213353
O       9.64698     11.74995     11.49870        -0.199718      0.050463     -0.042508
