  # total energy = -7880.12114630 
CRSYTAL
PRIMVEC
    15.3600000000000000    0.0000000000000000    0.0000000000000000
     0.0000000000000000   15.3600000000000000    0.0000000000000000
     0.2400000000000000    0.0000000000000000    17.440000000000000
PRESSURE
-0.319234 -0.654174 -4.72502 -0.044906 -0.533957 -0.015936
PRIMCOORD
320 1
Pb       3.90674      3.92388      4.33790        -0.268867     -0.227650      0.040737
Pb       4.05549      3.82270     17.38007         0.093854     -0.170037      0.163415
Pb       3.97595     15.32115      4.46789        -0.233802     -0.299783     -0.516821
Pb       3.63858      0.02367      0.03143         0.122882     -0.308921     -0.279268
Pb      15.32963      3.83408      4.27729         0.320329     -0.103914     -0.197265
Pb       0.09161      3.82771      0.05547        -0.137768     -0.118145     -0.053795
Pb      15.33492      0.18514      4.45231         0.432204     -0.418838     -0.566650
Pb      15.15473     15.18227      0.09846         0.534022      0.226733     -0.103314
Pb       4.04631      3.79563      8.68449         0.173157     -0.719058     -0.480103
Pb       3.87768     15.26628      8.80009         0.490253      0.686656     -0.966385
Pb      15.46708      3.80975      8.60497        -0.025798      0.040850     -0.507615
Pb      15.42218     15.28650      8.66640         0.198653      0.291121     -0.787092
Pb       3.96800      3.88814     13.10234        -0.164684     -0.858118     -0.874216
Pb       4.08619      0.00841     13.19575        -0.277446     -0.038338     -1.139830
Pb      15.52352      3.90747     13.04825         0.009467     -0.040272     -0.679595
Pb       0.21638      0.14840     13.11690         0.053140     -0.325295     -0.526315
Pb       3.82280      7.63326      4.33585        -0.137424      0.609488      0.225785
Pb       3.90147      7.64090     17.32206         0.293269      0.287467      0.248928
Pb      15.40429      7.62770      4.35362        -0.130306      0.007795     -0.368628
Pb      15.54224      7.77478     17.34283        -0.092145     -0.116446      0.446040
Pb       3.91403      7.55985      8.70094         0.282009      0.691618     -0.344899
Pb      15.32641      7.61628      8.66775         0.040480      0.406080     -0.375891
Pb       4.01569      7.66143     13.00372        -0.556829      0.231015     -0.497588
Pb      15.35799      7.60816     13.06845         0.772142      0.294974     -0.273821
Pb       3.86515     11.42971      4.42158         0.083480      0.469288     -0.300165
Pb       3.80003     11.66113      0.13016        -0.105339     -0.098715     -0.728488
Pb       0.14028     11.58258      4.45906        -0.030651     -0.012588     -0.145153
Pb      15.56808     11.50201     17.38556        -0.100060     -0.009619      0.417917
Pb       3.90950     11.50286      8.73078         0.259759      0.277678     -0.282043
Pb      15.35412     11.40728      8.65542        -0.025498      0.183463      0.144946
Pb       4.05064     11.48226     13.01515        -0.373910      0.329332     -0.373683
Pb       0.26015     11.54748     13.01915        -0.192739      0.045227     -0.614411
Pb       7.70860      3.90064      4.18058        -0.035466     -0.264717     -0.186817
Pb       8.00499      3.87845     17.43040        -0.479854      0.133239     -0.780880
Pb       7.77383      0.11490      4.24790        -0.163723     -0.837006     -0.056058
Pb       7.84034     15.29857     17.36377         0.247669     -0.420137     -0.322992
Pb       7.75643      3.86726      8.71498        -0.372201     -0.608356     -0.658131
Pb       7.80626     15.33443      8.70784        -0.160247      0.915432     -0.016209
Pb       7.87261      3.61481     13.24395         0.078930      0.069031     -0.914990
Pb       7.88610     15.23442     13.11145        -0.045681      0.212514     -0.204096
Pb       7.63943      7.72458      4.28340         0.006895      0.169149      0.132779
Pb       7.81006      7.63520     17.35922         0.254345     -0.048228     -0.454437
Pb       7.81904      7.61475      8.77597        -0.377450      0.549596     -0.790892
Pb       7.81682      7.57405     13.06207         0.080073      0.328457     -0.321967
Pb       7.58655     11.50140      4.28016         0.196748      0.707311     -0.106291
Pb       7.91163     11.42047     17.39960         0.007930      0.303114     -0.565988
Pb       7.83958     11.56118      8.76629        -0.220281     -0.357972     -0.244196
Pb       7.86492     11.37482     13.05752        -0.107738      0.351972     -0.095441
Pb      11.50732      3.81543      4.24217         0.294040      0.065603     -0.272994
Pb      11.75624      3.77530     17.40369         0.650360     -0.269548     -0.323580
Pb      11.49153     15.34078      4.31051        -0.042498      0.135002     -0.399391
Pb      11.68881     15.16251     17.35928         0.495278      0.630899     -0.195993
Pb      11.51864      3.79446      8.63809         0.000072     -0.383704     -0.413348
Pb      11.58075     15.21367      8.71675        -0.251217      0.823504     -0.417147
Pb      11.74705      3.84101     13.15334        -0.112691      0.094543     -0.434902
Pb      11.77714      0.04817     13.08298        -0.431954      0.059928      0.127754
Pb      11.51186      7.73891      4.34298         0.111581     -0.403489     -0.616404
Pb      11.82480      7.71853     17.38941         0.166183     -0.204875      0.050138
Pb      11.57632      7.62140      8.66649         0.003548      0.487135     -0.501576
Pb      11.59460      7.61909     13.13147         0.366146     -0.448070     -0.684159
Pb      11.40847     11.55899      4.38575         0.083517     -0.112826     -0.849894
Pb      11.78640     11.39393     17.39237         0.228768      0.231593      0.232866
Pb      11.63184     11.43965      8.63453        -0.029033     -0.323419      0.135916
Pb      11.74971     11.56062     13.05584         0.037482      0.085802     -0.220454
Ti       2.01260      1.90802      2.33279        -0.929588     -0.518305     -0.564379
Ti       2.12742      1.88153     15.37705         0.644790     -0.840499      0.014538
Ti       1.94827     13.40271      2.31155         0.297355      0.750699      0.457918
Ti       2.14442     13.34836     15.34286         0.435473      0.803113     -0.559539
Ti      13.45895      1.86481      2.28511         0.242564      0.550430     -1.360751
Ti      13.76626      1.92969     15.42377        -1.089898     -0.681644      0.726720
Ti      13.53573     13.37033      2.41645        -0.718884      0.164343     -1.619733
Ti      13.67416     13.43237     15.30699         0.307819      0.504522      0.259348
Ti       1.94319      1.98779      6.57373         1.051403     -1.393006     -0.465698
Ti       1.97599     13.43539      6.69131         0.345489      0.887997     -0.233396
Ti      13.49675      1.97999      6.55048        -0.628994     -0.802867     -1.034402
Ti      13.47917     13.45467      6.63099         0.650987      0.479288     -1.159237
Ti       1.99819      1.96998     10.90013         1.077911     -0.519642      1.139763
Ti       2.09823     13.48524     10.85369        -0.254449      0.154423      1.106551
Ti      13.53162      1.93859     10.95460         0.577678      0.499924      0.765454
Ti      13.61402     13.53266     10.97093         0.562630     -1.357924      0.147125
Ti       1.96696      5.73350      2.35967        -0.248261      0.246400     -0.008399
Ti       2.14489      5.74090     15.34358        -0.032429     -0.181253     -0.967239
Ti      13.45822      5.70041      2.24574        -0.163570      0.952880     -1.066083
Ti      13.71011      5.71551     15.43611        -0.341375     -0.103650      0.010789
Ti       2.02256      5.77088      6.66632        -0.525135     -0.268016     -1.645109
Ti      13.46963      5.76956      6.51162         0.301784      0.064405     -0.210434
Ti       2.12890      5.76298     10.84624        -0.832828      0.266495      0.303236
Ti      13.59460      5.78378     10.93177        -0.854871     -0.743123      1.272688
Ti       1.86632      9.59835      2.40283         0.460687      0.280203     -0.798600
Ti       2.10058      9.63160     15.26985         0.525962     -0.217858     -0.699425
Ti      13.45979      9.63925      2.44186        -0.331321     -0.837029     -2.052195
Ti      13.69588      9.65469     15.36266        -0.026139     -0.386860     -0.398433
Ti       1.96590      9.63669      6.80392         0.554419     -0.372895     -0.824779
Ti      13.52668      9.61916      6.51468         0.706995     -0.649210      0.302943
Ti       2.08028      9.65067     10.86442        -0.605421     -0.728351      0.465281
Ti      13.58519      9.60916     11.06759         0.774125      0.341972     -1.705715
Ti       5.76055      1.87124      2.18232        -0.257355      0.255879     -0.533040
Ti       5.97314      1.81472     15.42119         0.507598     -0.152945      0.068671
Ti       5.79871     13.53083      2.19820         0.339877     -1.227694      0.274496
Ti       5.99233     13.29759     15.29217        -0.014029      0.462206      0.890301
Ti       5.79988      1.92460      6.58850         0.251434     -0.522787      2.186638
Ti       5.89469     13.48881      6.81717        -0.953271      0.491708     -0.721125
Ti       5.91279      1.89495     11.07034         0.040681     -0.015316     -0.954598
Ti       5.93493     13.44587     11.00897         0.004236      0.455935     -0.698091
Ti       5.74391      5.80021      2.34438         0.086326     -0.045037     -0.639777
Ti       5.90305      5.71813     15.24089         1.010456     -0.224359      1.553892
Ti       5.76541      5.81961      6.58582         1.321683     -0.369983      0.444028
Ti       5.88410      5.69802     11.01627         1.008313     -0.607218     -1.450430
Ti       5.73167      9.61294      2.24198        -0.535114      0.345819     -0.003586
Ti       5.89815      9.47613     15.28161         0.291444      1.163132     -0.696567
Ti       5.78752      9.65043      6.81291         0.965157     -0.326559      0.191590
Ti       5.91006      9.59918     11.00391         0.412908     -0.770747     -1.790463
Ti       9.63355      1.90859      2.09948         0.131939     -0.693283      1.050791
Ti       9.82670      1.86704     15.45427         1.199709     -0.678550     -0.877922
Ti       9.68202     13.43936      2.22637        -1.155964     -0.733849      0.857104
Ti       9.82315     13.36361     15.33853        -0.024540      0.297617     -0.353141
Ti       9.66919      1.91141      6.47998         0.191369     -0.458816      1.504709
Ti       9.65341     13.45538      6.63177        -0.125624      0.431576      0.483170
Ti       9.76828      1.89656     11.19346        -0.135934      0.128227     -1.045785
Ti       9.82513     13.42229     11.03840        -0.832482      0.355887      0.305296
Ti       9.61641      5.74156      2.17075         0.450452      0.706592     -0.012953
Ti       9.86889      5.74905     15.40881        -0.172177     -0.384111     -0.043954
Ti       9.64882      5.74915      6.44046         0.075479     -0.093620      0.134064
Ti       9.69424      5.76050     11.03374         1.076917     -0.852386      1.806436
Ti       9.55273      9.56669      2.29832         0.905765      0.720034     -0.108838
Ti       9.85417      9.55622     15.25643        -0.593546      0.504262      0.051773
Ti       9.63960      9.64403      6.63716        -0.847595     -0.868545      0.730511
Ti       9.74298      9.58162     11.05383         0.103415     -0.129940     -1.654477
O       1.96013      1.98957      0.48194         0.178811      0.067682      0.970208
O       2.19233      1.78132     13.56225         0.020627      0.233474      0.628849
O       1.95311     13.31651      0.49103         0.112461     -0.024000      1.174627
O       2.16699     13.31106     13.50855         0.043905      0.332931      1.313894
O      13.45050      1.94073      0.43984         0.456481     -0.142263      1.543790
O      13.70815      1.95867     13.65306         0.228294     -0.504430     -0.249032
O      13.59402     13.33515      0.43887        -0.285377      0.198710      2.322408
O      13.72085     13.51758     13.50331        -0.191205     -0.130490      1.257656
O       1.87577      1.75427      4.72351         0.543711      0.759580      1.453434
O       1.91457     13.36397      4.87631         0.410413      0.111136      0.903834
O      13.56075      2.00714      4.68123        -0.129234     -0.381030      1.212709
O      13.42814     13.41015      4.80776        -0.101821      0.151961      0.901581
O       1.97815      2.00805      9.15929        -0.158952      0.151458     -0.324831
O       2.14170     13.43792      9.03811        -0.573936      0.229667      1.529961
O      13.41535      1.97048      9.21404         0.207098      0.019722     -0.662816
O      13.52754     13.43060      9.15671         0.222279      0.089097      0.481358
O       1.95050      5.68357      0.54926         0.259030      0.219089      0.280826
O       2.22204      5.64632     13.50869        -0.103455      0.307678      1.761269
O      13.45109      5.74921      0.36088         0.356191     -0.111952      1.985151
O      13.71793      5.75397     13.59421         0.034379     -0.133082      1.444752
O       2.03811      5.71046      4.68830         0.025172      0.429395      2.311356
O      13.46169      5.83473      4.70976         0.433337     -0.438501      0.712416
O       2.08216      5.77804      8.99274         0.092158     -0.443436      2.023878
O      13.41904      5.83737      9.15742         0.383414     -0.230696      0.640143
O       1.84575      9.60853      0.62048         0.430242     -0.294193      0.039312
O       1.99180      9.59927     13.49786         0.387729      0.255294      0.305931
O      13.45705      9.68568      0.43924         0.090435     -0.241233      1.626918
O      13.75065      9.63140     13.55866        -0.317665     -0.151176      0.500444
O       1.93219      9.74450      4.99449         0.015869     -0.203498      0.300349
O      13.66986      9.52159      4.70911        -0.733440      0.205727      0.824788
O       2.03785      9.57016      9.06992         0.034233      0.130009      1.082930
O      13.57821      9.52467      9.12965         0.087323      0.327760      2.203079
O       5.81555      1.82297      0.35619         0.148967      0.310815      1.336963
O       5.94577      1.78081     13.61666        -0.180513      0.154042      0.748203
O       5.74789     13.38903      0.41898         0.015819      0.012515      0.565510
O       6.00568     13.37933     13.48311        -0.308461     -0.133401      0.931736
O       5.77472      1.75698      4.86965         0.119781      0.282957     -1.362159
O       5.82954     13.53975      5.03230         0.116688     -0.140738      0.075124
O       6.01592      1.99863      9.28432        -0.038760      0.062529      0.058553
O       5.90335     13.54119      9.16891         0.052435     -0.317838      1.418471
O       5.76730      5.77055      0.58619         0.185946      0.185992     -0.205086
O       5.80980      5.81526     13.49205         0.212978     -0.068577     -0.189095
O       5.65104      5.83680      4.75436         0.705814     -0.405785      0.871595
O       6.07344      5.59297      9.04443        -0.858217      0.609327      2.659602
O       5.73736      9.52503      0.44782         0.055031      0.189217      0.843957
O       6.00170      9.47318     13.45046        -0.199994     -0.000581      0.683863
O       5.84370      9.72568      5.04724        -0.161295     -0.105716     -0.588229
O       5.96326      9.37610      9.11980         0.111125      0.755344      2.121040
O       9.55895      1.86898      0.32794         0.083473      0.030321      0.401607
O       9.97188      1.84084     13.58777        -0.724410      0.050345      1.288944
O       9.69915     13.30259      0.47218        -0.196715      0.076265     -0.173479
O       9.92179     13.42935     13.54443        -0.369398     -0.042276      0.156419
O       9.72680      1.80005      4.71652        -0.325144      0.517127      0.298675
O       9.67664     13.47444      4.85433         0.244621      0.008726      0.728333
O       9.82431      1.91031      9.38924         0.308044      0.272539      0.743915
O       9.69238     13.49031      9.23836         0.521666     -0.351208      1.016351
O       9.50554      5.81864      0.33539         0.211087     -0.355293      1.625244
O      10.00714      5.71827     13.59441        -0.547103      0.333893      1.331887
O       9.67469      5.69154      4.63174        -0.235635     -0.095520      1.354528
O       9.74107      5.81662      9.29266         0.311591     -0.366022     -0.606045
O       9.50255      9.66792      0.49338         0.183226     -0.305361      0.915068
O       9.93703      9.60423     13.43998        -0.181722     -0.333250      0.985733
O       9.67117      9.59251      4.84943        -0.046507      0.066564      0.373279
O       9.63666      9.56591      9.06010         0.596479     -0.129810      2.662060
O       3.88548      1.75582      2.62813         0.863716      0.419077      0.011306
O       4.13867      1.82465     15.91231        -0.052271      0.103243     -0.794860
O       3.87088     13.45372      2.75763         0.106216      0.107192     -0.456605
O       4.07454     13.41204     15.86580         0.997299     -0.294302     -0.635475
O       0.09328      1.99080      2.69052        -0.307573      0.152979     -0.184147
O       0.32986      1.83100     15.67610        -0.654424      0.366086      0.227816
O      15.36567     13.33621      2.82418         0.589745      0.096301     -0.622234
O       0.30172     13.36339     15.79855        -0.584672     -0.022801     -0.541171
O       3.93992      1.89850      7.05444        -0.589174      0.267750     -0.273228
O       3.95061     13.45375      7.12618        -0.563771     -0.099105     -0.231974
O       0.10043      1.98898      6.96225        -0.408104     -0.031626      0.299758
O      15.43740     13.56726      6.97220        -0.329424     -0.701488      0.397246
O       4.10525      2.08804     11.34165        -1.851825     -0.036310      0.347505
O       4.07863     13.25720     11.43341        -0.879703      0.049901     -0.539761
O      15.49198      1.81009     11.41043         0.259310      0.091597     -0.240777
O       0.20035     13.60243     11.34775         0.383349     -0.088490     -0.515200
O       3.89669      5.95666      2.66912        -0.547373     -0.634909     -0.098653
O       4.07690      5.78194     15.87454        -0.038995     -0.201096     -0.762406
O      15.38993      5.66412      2.58587         0.177888      0.415798      0.171953
O       0.33147      5.68809     15.80577        -1.065724     -0.261072     -0.302123
O       3.96292      5.63795      7.01614         0.003175      0.551310     -0.085078
O       0.14849      5.68440      7.10037        -0.625997      0.315467     -0.636899
O       4.01979      5.67279     11.44988        -0.120256     -0.309742     -0.824274
O       0.27893      5.82066     11.46961        -0.557763     -0.161250     -0.970990
O       3.85454      9.67899      2.80559         1.048313     -0.296790     -0.445985
O       4.03006      9.45284     15.45316         0.344500     -0.045448      0.602650
O      15.34709      9.57705      2.70598         0.363806      0.324718      0.074617
O       0.27820      9.65528     15.77699        -0.866896     -0.108248     -0.051905
O       3.89544      9.60502      7.17842         0.292499      0.136300     -0.196575
O       0.13165      9.51934      7.20036        -0.779468      0.073004     -0.622459
O       4.05620      9.77257     11.26244        -0.613931     -0.365245      0.188282
O       0.21210      9.56539     11.33631        -0.186897     -0.382833     -0.243215
O       7.80325      1.85955      2.67631        -1.216896      0.645638     -0.453257
O       7.96386      1.84516     15.70461        -0.621709      0.438118     -0.000648
O       7.73869     13.44418      2.64104        -0.244556      0.486477     -0.169729
O       7.96908     13.29824     15.80699        -0.728785     -0.125933     -0.303146
O       7.84387      1.85719      6.97546        -0.194898      0.155349     -0.354658
O       7.79402     13.53954      7.16466         0.680805     -0.434007     -0.388523
O       7.81491      1.78808     11.53783         1.255487     -0.064470      0.464196
O       7.83815     13.56316     11.44292         0.663435     -0.415101     -0.274181
O       7.73011      5.75444      2.63884        -0.505397      0.071332      0.148131
O       7.95339      5.72112     15.68985        -0.693721      0.321508     -0.186062
O       7.81758      5.66201      6.91239         0.072998      0.331700     -0.453468
O       7.87265      5.79881     11.39782        -0.937597      0.232866      0.132127
O       7.64098      9.61790      2.77132         0.250502     -0.361039     -0.405567
O       7.97368      9.50287     15.58699         0.106545     -0.085107      0.188549
O       7.81320      9.53450      7.02582         0.180010     -0.060069     -0.107129
O       7.89240      9.46457     11.50234        -0.155577     -0.045100     -0.409895
O      11.49262      1.92625      2.64198         0.547240      0.043171     -0.351693
O      11.84018      1.80179     15.81635        -0.924457      0.036528     -0.116385
O      11.54823     13.45998      2.65713         0.803161     -0.115734      0.237769
O      11.75521     13.51079     15.72151         1.024171     -0.529166     -0.269301
O      11.66015      1.79715      6.83231        -0.372274      0.681107      0.399840
O      11.59687     13.25537      7.15371         0.163451      0.702779     -0.744631
O      11.77906      2.00268     11.59510        -0.841053     -0.218492     -0.449511
O      11.73784     13.25373     11.41926        -0.483982      0.526351     -0.471229
O      11.56256      5.74440      2.67563        -0.387717     -0.481198     -0.653468
O      11.85383      5.65545     15.96528        -0.639021      0.556932     -1.120495
O      11.65948      5.75330      6.79503        -0.702389     -0.313720      0.542129
O      11.68648      5.71479     11.54147         0.539016      0.056400     -0.934154
O      11.49522      9.71187      2.64983        -0.060921     -0.713897      0.219994
O      11.80507      9.61907     15.81178        -0.438764     -0.419982     -0.507589
O      11.73239      9.60052      6.92468        -1.095359      0.566843      0.000429
O      11.72503      9.56418     11.25742        -0.539083      0.325900      0.347041
O       2.16046      3.88560      2.77784        -0.353772     -0.446752     -0.686889
O       2.21412      3.76025     15.78462         0.304361      0.691643     -0.293602
O       1.91061      0.01359      2.55688        -0.160187     -1.090715      0.000215
O       2.24984     15.26579     15.78385        -0.239933      0.541702     -0.325889
O      13.56339      3.77552      2.66766        -0.850885      1.062866     -0.248427
O      13.62411      3.76753     15.82101         0.850774      0.895735     -0.303274
O      13.60734      0.01972      2.57851        -0.396521     -0.780119      0.230310
O      13.80073     15.33464     15.90660        -0.371855     -0.745715     -0.872438
O       2.04505      3.84627      6.97817        -0.013952     -0.269369     -0.004622
O       1.96385      0.06415      7.06311         0.194308     -0.346615     -0.007442
O      13.52304      3.80770      6.90273         0.058585      0.980053      0.406604
O      13.60145      0.03821      6.86586        -0.263704     -0.774957      0.508080
O       2.01182      3.80814     11.40265         0.225427      0.785038     -0.345280
O       2.30946      0.03728     11.16341        -0.234988     -0.603542      0.302732
O      13.65941      3.84851     11.42947         0.464777      0.661548     -0.414066
O      13.52244     15.34898     11.31658        -0.181939      0.474012      0.034897
O       1.94246      7.75230      2.86686        -0.078842     -0.851497     -0.537463
O       2.07866      7.63984     15.65834         0.316208      0.091713      0.336811
O      13.43514      7.66461      2.59771         0.128162     -0.147900      0.086008
O      13.73603      7.69307     15.72797        -0.025746     -0.251040     -0.064419
O       2.12828      7.61303      7.02354        -0.274670      0.406431     -0.261698
O      13.60041      7.67308      6.90187         0.119746     -0.209984      0.151099
O       2.28007      7.67100     11.21652         0.003291     -0.119015     -0.164685
O      13.62081      7.62943     11.48390        -0.033374      0.383204     -0.403604
O       2.05067     11.50008      2.75201        -0.691817      0.535353      0.070647
O       2.29643     11.47396     15.76938        -0.269294     -0.276568     -0.079762
O      13.40341     11.48765      2.74658         0.256491      0.802270      0.010997
O      13.67822     11.54281     15.75406        -0.048969      0.079344     -0.513703
O       1.96126     11.54903      7.15306         0.010226     -0.125553     -0.293554
O      13.68376     11.51422      6.91397        -0.103012     -0.171341      0.153912
O       1.94708     11.55044     11.31599         0.608073     -0.100389     -0.467441
O      13.69946     11.54220     11.48078         0.033011     -0.678495     -0.546440
O       5.64936      3.78843      2.66586         0.781239      0.208993     -0.036433
O       6.05179      3.86088     15.65865        -0.377160     -0.282178     -0.089799
O       5.83629      0.02432      2.60732         0.136571      0.087601      0.210511
O       6.21387     15.20384     15.71178        -0.920126      0.813800     -0.468495
O       5.82208      3.80522      7.05316         0.551177      0.372096     -0.570273
O       5.83185      0.04240      7.16633         0.228958     -0.041463     -0.101056
O       6.05213      3.81894     11.42884         0.174822      1.340366      0.375045
O       5.76295     15.34364     11.39444         0.277536     -0.682866      0.221632
O       5.74373      7.72568      2.74563         0.678279      0.532293     -0.235396
O       6.00148      7.66660     15.76930         0.051487     -1.069145     -0.160794
O       5.89371      7.68895      7.06034        -0.355331     -1.328131     -0.381786
O       5.84216      7.62235     11.34555         0.198326     -0.148090      0.091326
O       5.90558     11.64371      2.63075        -0.755070     -1.572334     -0.009121
O       6.05798     11.41471     15.66787        -0.373961     -0.214472      0.006942
O       5.85767     11.52947      7.25467         0.370193      0.059757     -0.189049
O       6.09282     11.44918     11.33325         0.184619      0.325518     -0.020210
O       9.54457      3.84679      2.50501         0.303570     -0.317260     -0.053626
O       9.83553      3.77085     15.80872         0.237268      0.336735     -0.133655
O       9.66442     15.31727      2.69975         0.113671      0.688355     -0.681899
O       9.78955     15.23781     15.80502         0.108359      0.993329      0.024713
O       9.79150      3.76470      7.00400         0.094971      0.776112     -0.481775
O       9.82114     15.35951      7.12017        -0.270441     -0.546895     -0.571921
O       9.65916      3.77775     11.64598         0.411761      0.606447     -0.697638
O       9.92351     15.32392     11.42533         0.152552     -0.405291      0.197172
O       9.66902      7.64059      2.74080        -0.403166      0.626471     -0.630256
O       9.94471      7.59979     15.76565         0.170773      1.120417     -0.532114
O       9.88618      7.60959      6.97468        -0.789590      0.088169     -0.429205
O       9.80136      7.66877     11.50774         0.193313     -0.032814     -0.344793
O       9.60244     11.52264      2.81836        -0.038013     -0.270220     -0.469188
O       9.87982     11.47869     15.60903         0.236243     -1.018484      0.292520
O       9.54597     11.54198      7.16316         0.996467     -0.103923     -0.890601
O       9.67605     11.48697     11.48187         0.343612     -0.209092     -0.652902
