  # total energy = -7884.98228651 
CRSYTAL
PRIMVEC
    15.3600000000000000    0.2300000000000000    0.0000000000000000
     0.0000000000000000   15.3600000000000000    0.0000000000000000
     0.0000000000000000    0.0000000000000000    17.440000000000000
PRESSURE
0.612171 0.844597 2.88487 -0.037598 -0.066197 -1.55184
PRIMCOORD
320 1
Pb       3.84375      3.87266      4.30629        -0.079924      0.018171     -0.290453
Pb       3.81736      3.88431     17.39739         0.075933      0.063365     -0.589525
Pb       3.79633     15.38680      4.36065         0.073397      0.324606     -0.341089
Pb       3.81108     15.37481     17.43194         0.072624      0.067217     -0.795895
Pb      15.35854      4.02898      4.29562        -0.044672     -0.046671     -0.461771
Pb      15.34250      4.03310     17.39716        -0.369489     -0.217784     -0.188573
Pb      15.33123     15.56687      4.33682         0.069448      0.170140     -0.013932
Pb      15.32565     15.54976     17.40398         0.228754      0.329413     -0.481471
Pb       3.83748      3.87839      8.68594        -0.173079     -0.223520     -0.705680
Pb       3.81797     15.41504      8.71308         0.064614      0.114523     -0.445961
Pb      15.35934      4.12330      8.70347        -0.006577     -0.445992     -0.391650
Pb      15.35731     15.55096      8.69591        -0.403079      0.389834     -0.584652
Pb       3.85976      3.89682     13.03317        -0.248491     -0.195034      0.171694
Pb       3.81826      0.06440     13.05844         0.017370     -0.082922     -0.197381
Pb      15.34485      4.07188     13.03222        -0.011689      0.016202     -0.256295
Pb      15.35388     15.58559     13.04540        -0.258259     -0.031070     -0.098814
Pb       3.83405      7.71824      4.34314        -0.024090     -0.072381     -0.701112
Pb       3.82800      7.74384     17.39496         0.107319     -0.275532     -0.229159
Pb      15.31181      7.87018      4.32722         0.325975     -0.193013     -0.369105
Pb      15.33121      7.89750     17.40853         0.205531      0.305208     -0.372983
Pb       3.80249      7.70624      8.67976         0.167119      0.096183     -0.600410
Pb      15.31462      7.90548      8.70888         0.053577      0.074349     -0.585756
Pb       3.81365      7.71997     13.02122         0.346578      0.009081      0.007762
Pb      15.34785      7.89739     13.03948        -0.141647     -0.487879     -0.301802
Pb       3.81932     11.56228      4.30345        -0.087110     -0.316208     -0.115438
Pb       3.81554     11.56953     17.41576         0.054204      0.110405     -0.861819
Pb      15.35771     11.75205      4.30356        -0.433867     -0.101795     -0.256613
Pb       0.01155     11.50317      0.00245        -0.113594     -0.208223     -0.869606
Pb       3.80106     11.55936      8.66536        -0.283221     -0.080570     -0.075104
Pb      15.33121     11.74699      8.66937        -0.095589     -0.428962     -0.555898
Pb       3.80962     11.54613     13.02349        -0.062453      0.201569     -0.171850
Pb      15.35833     11.69808     13.04359        -0.093204      0.573918     -0.035444
Pb       7.63106      3.91773      4.33346         0.322522      0.087793     -0.429921
Pb       7.65153      3.94140     17.39746        -0.071943      0.108805     -0.316828
Pb       7.62008     15.44970      4.34248         0.073576      0.306946     -0.604322
Pb       7.67295      0.12199     17.40785        -0.069512     -0.241247     -0.469724
Pb       7.64814      3.96012      8.67806         0.368686     -0.044698     -0.297521
Pb       7.66166     15.43304      8.68769         0.173605      0.419491      0.026348
Pb       7.66199      3.91917     13.02543         0.149221      0.027222     -0.037587
Pb       7.64844     15.40821     13.06052         0.314703      0.064396     -0.209375
Pb       7.68205      7.75800      4.35625        -0.290123     -0.127845     -0.697856
Pb       7.69120      7.79525     17.43571        -0.289634     -0.161482     -0.537569
Pb       7.69576      7.78685      8.68654        -0.138926     -0.191305     -0.556124
Pb       7.66026      7.77896     13.04272        -0.231546     -0.056352     -0.226214
Pb       7.67415     11.66744      4.35048        -0.074401     -0.161530     -0.702984
Pb       7.67040     11.59920     17.43044        -0.111731     -0.013532     -0.625791
Pb       7.64195     11.64059      8.72197         0.230673     -0.179117     -0.276364
Pb       7.67376     11.61997     13.09266         0.114405     -0.006442     -0.776120
Pb      11.49671      4.00652      4.35480        -0.059721     -0.234880     -0.533691
Pb      11.49757      3.98025     17.42471         0.302958     -0.176461     -0.178315
Pb      11.52114     15.52780      4.30275        -0.168699     -0.094421      0.059985
Pb      11.48613     15.47301      0.00327        -0.207590      0.272689     -0.853518
Pb      11.49535      3.98899      8.70290        -0.076829     -0.164693     -0.826315
Pb      11.50816     15.51342      8.69913         0.279543      0.112789     -0.779923
Pb      11.50560      3.99863     13.06142        -0.231201      0.127965     -0.529722
Pb      11.52804     15.47427     13.03376        -0.281914     -0.022969     -0.217640
Pb      11.47122      7.86768      4.31241         0.100611     -0.550335     -0.538803
Pb      11.51393      7.81689     17.41182        -0.213140      0.160504     -0.368190
Pb      11.50933      7.82232      8.67388        -0.221781      0.092995     -0.333871
Pb      11.49936      7.81158     13.05986        -0.082791      0.205294     -0.380785
Pb      11.52714     11.64270      4.31834         0.330448      0.696307     -0.526844
Pb      11.52417     11.68186     17.39524         0.007180     -0.364460     -0.686112
Pb      11.48598     11.67697      8.64481         0.086175      0.074821     -0.069579
Pb      11.51435     11.65494     13.04078        -0.124611     -0.046630     -0.289361
Ti       1.93630      1.93528      2.29054        -0.523239     -0.477455      0.882362
Ti       1.86178      1.96217     15.32349         0.206448     -0.701727      1.097396
Ti       1.90526     13.47314      2.34419        -0.051884      0.561070      1.421862
Ti       1.85727     13.48018     15.35825         0.202369     -0.197795      0.878706
Ti      13.45613      2.07703      2.28074         0.090173      1.205783      1.053225
Ti      13.39468      2.09277     15.34247         0.402626      0.062384      3.543730
Ti      13.46206     13.71245      2.29524        -0.412662     -1.559119      2.567385
Ti      13.40201     13.67415     15.38508         0.179949     -1.397408      1.471535
Ti       1.89403      1.91669      6.66978        -0.229761      0.116276      1.063482
Ti       1.89450     13.46983      6.63346         0.160261     -0.398666      1.054447
Ti      13.45638      2.13309      6.63486        -0.403575     -0.838782      1.949741
Ti      13.39824     13.59995      6.69660         0.294806      0.999844     -0.468810
Ti       1.88270      1.85970     11.06203         0.012067      1.061174     -0.579148
Ti       1.91789     13.47502     11.00906        -0.728353     -0.703537      3.068837
Ti      13.42304      2.11946     10.97850         0.003096     -0.854156      1.474156
Ti      13.39371     13.62195     10.97937         0.295850      0.170127      1.373685
Ti       1.90497      5.80179      2.26122         0.273309      0.068776      1.146041
Ti       1.84706      5.76268     15.36486         0.949366      0.317244     -0.777803
Ti      13.41668      5.90785      2.28132        -0.141331     -0.057748      0.964086
Ti      13.37458      5.93850     15.38478         0.410708     -0.575732      0.644872
Ti       1.88597      5.79347      6.63039        -0.194954     -0.844499      0.983929
Ti      13.42923      5.94500      6.65200        -0.150009     -0.332002      0.785589
Ti       1.96003      5.68415     11.02289        -1.078069      1.003090      1.825757
Ti      13.40504      5.94312     11.00366         0.376239     -0.316065      0.755687
Ti       1.90239      9.65065      2.29481        -0.681676     -0.948921      0.199015
Ti       1.95203      9.61476     15.33742        -1.184920      0.548615      0.756188
Ti      13.40554      9.73300      2.30627         0.562042      0.639516      1.082118
Ti      13.39690      9.75873     15.40176         0.307084      0.828169     -0.879157
Ti       1.89270      9.64453      6.62463        -0.520499     -0.589893     -0.220488
Ti      13.34806      9.76073      6.61997         1.039333      0.164477      2.935180
Ti       1.91126      9.56814     11.03101         0.409449      1.055614     -0.070857
Ti      13.47376      9.76715     11.08602        -1.920931      0.162118     -1.029914
Ti       5.73386      1.95613      2.31323         0.136998      0.069552      0.254723
Ti       5.74027      1.96612     15.41401        -0.249706      0.399184      0.601003
Ti       5.74665     13.46379      2.29196         0.664322      0.953178     -0.367482
Ti       5.71630     13.51083     15.33855         0.083217     -0.387348      1.521247
Ti       5.72610      2.00816      6.66192         0.000259     -0.688169      0.657743
Ti       5.72482     13.54643      6.70534        -0.265294      0.194211      0.118758
Ti       5.78510      1.98666     11.03868        -0.402990     -0.115181      0.814000
Ti       5.74086     13.56639     11.01735        -0.400837     -0.571539      1.462496
Ti       5.75532      5.77854      2.28064         0.159156      0.810944      2.981816
Ti       5.67263      5.79698     15.34884         0.863423      0.741037      1.958661
Ti       5.69718      5.80780      6.59327         0.762982      0.684931      1.431242
Ti       5.72271      5.80310     10.99269         0.829826      0.715156      2.006961
Ti       5.74387      9.66497      2.33148         0.092794     -1.126387      0.301580
Ti       5.71476      9.66603     15.39536         0.620634     -0.629864      1.124718
Ti       5.72097      9.72746      6.67537         0.024356     -1.211394      0.333653
Ti       5.72016      9.67586     10.95905         0.386567     -0.031510      1.443103
Ti       9.59394      2.03988      2.29531        -0.015532      0.176184      1.216046
Ti       9.56856      2.04194     15.39616        -0.023932     -0.431624      0.889511
Ti       9.56447     13.54699      2.28906         0.508948      0.396381      0.475819
Ti       9.54771     13.49634     15.41531         0.141731      0.889235     -1.728219
Ti       9.55113      2.03297      6.68281         1.140179      0.162036      0.105411
Ti       9.52051     13.61995      6.62945         1.121156     -0.260304      2.505462
Ti       9.55978      2.04139     11.03980        -0.245835     -0.087829     -0.276476
Ti       9.57278     13.60331     10.99071        -0.216410     -0.785339      0.368520
Ti       9.58432      5.84183      2.27140        -0.069476      0.161504      1.545159
Ti       9.55131      5.83116     15.38985        -0.494453      1.064901     -0.749706
Ti       9.58287      5.89499      6.60844        -0.091150     -0.289216      1.925603
Ti       9.56612      5.87649     11.01169        -0.295882     -0.038444      1.154508
Ti       9.60027      9.72215      2.32845        -0.735522     -0.511117     -0.284414
Ti       9.54421      9.69294     15.37036         0.245179     -0.256185      1.821978
Ti       9.56315      9.75888      6.58506        -0.207371     -0.379242      1.709539
Ti       9.55131      9.67931     11.01537         0.691929      0.770251      1.662840
O       1.86829      1.88971      0.55802         0.311528      0.020392     -0.906911
O       1.86729      1.89926     13.60585         0.046853      0.200377     -1.403832
O       1.80834     13.49784      0.65737         0.447662     -0.059346     -2.446221
O       1.97074     13.42754     13.65491        -0.270051      0.155172     -1.573774
O      13.44354      2.19595      0.56710         0.068071     -0.599046     -1.289864
O      13.51628      2.15302     13.68714        -0.363985      0.294802     -2.742604
O      13.51202     13.71574      0.61150        -0.543225     -0.261241     -2.561330
O      13.40795     13.51215     13.72325        -0.099732      0.204872     -2.812500
O       1.95812      1.88692      4.95910        -0.294678      0.180166     -1.587312
O       1.89835     13.48331      4.90295         0.235166     -0.305954     -1.526486
O      13.43244      2.11275      4.91717         0.048409     -0.018820     -1.511899
O      13.43994     13.66509      4.91892         0.002571     -0.187585     -0.152729
O       1.81091      1.89295      9.28067         0.326711     -0.004275      0.012426
O       1.84408     13.43346      9.33296         0.161097     -0.016535     -2.512529
O      13.47451      2.05465      9.27193         0.001312     -0.003819     -1.138496
O      13.40546     13.63472      9.24310         0.168078     -0.056785     -0.803974
O       1.93056      5.79636      0.52698        -0.127625     -0.142301     -0.930277
O       1.98363      5.70766     13.57448        -0.301272      0.463084      0.235515
O      13.47440      5.87568      0.56195        -0.020899      0.205764     -1.436937
O      13.39486      5.94435     13.65589         0.134645     -0.198289     -1.200182
O       1.88103      5.81939      4.91810         0.166480     -0.205910     -1.633965
O      13.38569      5.99447      4.93050         0.072343     -0.252511     -1.357074
O       1.77670      5.82900      9.32617         0.469613     -0.410507     -1.519828
O      13.53088      5.95517      9.25308        -0.452072      0.167872     -0.516341
O       1.69404      9.53562      0.53930         0.780143      0.596133     -0.153341
O       1.99714      9.68520     13.59498        -0.405429     -0.344547     -1.006705
O      13.41767      9.70841      0.60240         0.006919      0.324397     -2.104757
O      13.34317      9.78285     13.59446         0.392943     -0.321945      0.211259
O       1.95945      9.69292      4.84794        -0.000476     -0.220506     -0.098526
O      13.38089      9.81459      4.94552        -0.185544     -0.153937     -2.572305
O       1.94608      9.68584      9.27186        -0.146371     -0.284277     -0.352011
O      13.45365      9.79157      9.29270        -0.015402     -0.169402      0.122757
O       5.73453      2.03758      0.56359        -0.201298     -0.159431     -0.711411
O       5.80003      2.08904     13.70021        -0.037303     -0.399438     -1.470217
O       5.84127     13.50533      0.53002        -0.399733     -0.250489     -0.192226
O       5.70353     13.53133     13.61838         0.186036      0.180718     -1.316770
O       5.69560      1.91147      4.93662         0.322499      0.056668     -1.055385
O       5.81692     13.52337      4.95857        -0.237525     -0.081149     -1.026225
O       5.69142      2.01663      9.31949         0.175441      0.070532     -1.698038
O       5.68967     13.59087      9.31004        -0.020597     -0.040515     -1.945487
O       5.62617      5.83897      0.61700         0.216068     -0.325339     -2.593507
O       5.59422      5.94991     13.65190         0.399801     -0.450692     -1.803185
O       5.73281      5.83042      4.88050        -0.085534     -0.067612     -1.266072
O       5.73929      5.81961      9.28914        -0.451948     -0.158210     -1.480638
O       5.65869      9.61645      0.59461         0.161178      0.463395     -1.020113
O       5.78775      9.63809     13.70459        -0.120740     -0.038449     -2.063766
O       5.65548      9.62995      4.92669         0.279491      0.484753     -0.572826
O       5.73775      9.56665      9.23100        -0.064674      0.233959     -1.167139
O       9.56863      2.07265      0.55714         0.048562     -0.200096     -0.613143
O       9.53050      2.14480     13.68226         0.065280     -0.083799     -1.301021
O       9.53600     13.57148      0.52561         0.238133     -0.102300     -0.559360
O       9.55601     13.59559     13.57057        -0.190288     -0.270673      1.149018
O       9.66560      2.08071      4.92082        -0.236126     -0.170065     -0.187828
O       9.68699     13.63075      4.95503        -0.483070     -0.015602     -2.281110
O       9.35514      2.04433      9.28889         0.830839     -0.032673     -0.330556
O       9.55718     13.60376      9.20175         0.033406     -0.262415      0.301912
O       9.51138      5.76054      0.56012         0.266447      0.255086     -1.381091
O       9.50347      5.92444     13.57369         0.164352     -0.413434      0.770823
O       9.54142      5.80717      4.90357         0.357494      0.146399     -1.313153
O       9.62824      5.91981      9.28709         0.039446     -0.236428     -1.024899
O       9.52997      9.71182      0.56378         0.269450      0.046960      0.058809
O       9.59558      9.71700     13.66329        -0.222277     -0.207043     -1.522046
O       9.63152      9.66283      4.86880        -0.158632      0.229368     -1.332953
O       9.52590      9.73008      9.31203        -0.061996      0.118788     -1.898932
O       3.84949      1.98947      2.76622        -0.467682     -0.373356     -0.011648
O       3.81007      1.93480     15.64971        -0.333532     -0.107088      0.826015
O       3.92378     13.52673      2.65268        -1.519646     -0.389905      0.374324
O       3.79968     13.46528     15.76369         0.442197      0.065153      0.766399
O      15.35740      2.03569      2.76324         0.252479      0.753731      0.100565
O      15.33313      2.04535     15.80044        -0.175893      0.717417      0.114757
O      15.35742     13.61650      2.66642        -0.263414      0.232491      0.663217
O      15.31067     13.61071     15.78204         0.007409      0.050998      0.429956
O       3.83173      1.90119      6.94485        -0.260731      0.547056      1.088584
O       3.81774     13.45100      7.12231        -0.096814     -0.023650      0.055704
O      15.33607      2.04173      7.09377         0.205350      0.267910     -0.026944
O       0.06047     13.39983      7.06532        -0.833694     -0.125703      0.334898
O       3.83987      1.83903     11.35433        -0.347040      0.582204      0.545375
O       3.75156     13.53531     11.44549         0.844267      0.313164     -0.022875
O      15.34867      2.16178     11.51552         0.127182     -0.292056     -0.137726
O      15.25708     13.68512     11.56812         0.755489     -0.360506     -0.567335
O       3.86347      5.82083      2.69430        -0.630457     -0.456484      0.335702
O       3.83771      5.76989     15.74787        -0.873363      0.065019      0.636387
O      15.33854      6.00036      2.75384         0.465460     -0.075696      0.003270
O       0.00776      5.77645     15.63353        -0.303749     -0.098062      0.618408
O       3.80338      5.72707      7.05230         0.140955     -0.000806      0.360051
O      15.35787      6.02641      6.97486        -0.957732     -0.411782      0.660803
O       3.83468      5.81117     11.45417        -0.218004     -0.055066     -0.354902
O      15.31166      6.02905     11.41959         0.541156     -0.104534      0.453217
O       3.78684      9.60270      2.66680         0.456907      0.547507      0.313725
O       3.79223      9.65789     15.72458         0.465136      0.295999      0.796262
O       0.00937      9.47713      2.71686        -0.395868      0.464377      0.402713
O      15.32054      9.85359     15.77305        -0.004607     -0.434277      0.044370
O       3.81372      9.69420      7.01988         0.116256     -0.578383      0.534540
O      15.33943      9.88267      6.97038        -0.379602     -0.530381      0.394401
O       3.85663      9.66237     11.39838        -0.149899     -0.093229      0.098846
O      15.31949      9.73638     11.38101         0.752727      0.300620      0.569107
O       7.64783      2.01428      2.72514         0.481391     -0.223413      0.211522
O       7.64597      2.02568     15.78090         0.293634     -0.061050      0.516858
O       7.68615     13.53049      2.72056        -0.252276      0.038518      0.627217
O       7.67744     13.47404     15.76556        -0.602035      0.322634      0.219073
O       7.70191      1.94857      7.07359        -0.833684      0.403462     -0.121754
O       7.61886     13.64696      7.04379         0.501518     -0.694273      0.191532
O       7.66557      1.96665     11.44688        -0.174592      0.256025      0.587296
O       7.61644     13.53731     11.31069         0.864237      0.253924      0.522511
O       7.70917      5.79022      2.71687        -0.821836      0.161306      0.185374
O       7.64010      5.89903     15.78281         0.084292     -0.553374      0.130262
O       7.66075      5.81443      6.99940         0.201291     -0.113905      0.318925
O       7.62517      5.92182     11.30197         0.280985     -0.348809      0.523420
O       7.68881      9.61681      2.73320        -0.169864      0.824045      0.339230
O       7.66206      9.63503     15.76366        -0.047908      0.020015      0.483567
O       7.63592      9.61082      7.10612         0.268829      0.837965     -0.260432
O       7.64492      9.72952     11.42046        -0.072974     -0.214247      0.228945
O      11.55566      2.12541      2.66407        -0.629624     -0.412400      0.220586
O      11.48575      1.99532     15.80287         0.015213      0.415025      0.136307
O      11.47505     13.59041      2.81177         0.513609      0.056017     -0.585523
O      11.46800     13.54717     15.74406        -0.094604      0.142642      0.930103
O      11.57380      2.04443      7.13159        -0.916544     -0.064248      0.227043
O      11.55947     13.63452      7.10492        -1.200794     -0.251965      0.131999
O      11.44594      2.07823     11.45806         0.766131      0.310740     -0.045917
O      11.50926     13.65215     11.48309        -0.163344     -0.193248     -0.317669
O      11.51159      5.89020      2.62417        -0.125451     -0.090049      0.494695
O      11.50443      5.84979     15.63321        -0.479099      0.083492      0.791865
O      11.50024      5.93089      7.06064        -0.194504     -0.101052      0.300550
O      11.50191      5.89825     11.49741         0.220507     -0.775434     -0.226957
O      11.50476      9.71934      2.66080        -0.436889      0.207290      0.550672
O      11.47188      9.76159     15.79336         0.097995     -0.449032      0.599819
O      11.45321      9.79531      7.09840         0.021951     -0.168925     -0.072283
O      11.47408      9.71761     11.42088         0.174718      0.302765      0.243789
O       1.92157      3.78578      2.67346        -0.231524      1.214682      0.302402
O       1.92527      3.86489     15.71416        -0.254511     -0.176387      0.451970
O       1.85407     15.38694      2.69617         0.731904     -0.412840      0.517910
O       1.77793     15.35868     15.67866         0.738950      0.302676      0.748231
O      13.47107      4.00677      2.59885         0.274860      0.160413      0.950123
O      13.46697      4.00748     15.92722        -0.193149      0.070530     -0.628143
O      13.49809      0.20563      2.62254        -0.503771     -0.463673      0.550568
O      13.38754     15.51920     15.66604        -0.064153      0.651631      0.718007
O       1.79988      3.82778      7.10110         0.530478      0.017358      0.141948
O       1.93703     15.33022      6.96103         0.010529      0.258199      0.752496
O      13.37479      4.01496      7.03164         0.458547      0.348819      0.355784
O      13.42270     15.52804      7.07951         0.308513     -0.158358      0.276890
O       1.92118      3.84974     11.47063         0.107940     -0.214964     -0.287473
O       1.86435      0.04540     11.43815        -0.120343     -1.023159      0.220641
O      13.53391      3.94907     11.34064        -0.762144      1.620924      0.494210
O      13.42499      0.22282     11.47826        -0.138297     -0.427484      0.011793
O       1.97392      7.67131      2.64353        -0.303235      0.005940      0.389447
O       1.92300      7.74835     15.77457        -0.092305     -0.850665     -0.100374
O      13.36028      7.84745      2.56305         0.235157     -0.144291      1.034625
O      13.38674      7.81187     15.79379         0.015919      0.474238      0.332444
O       1.82751      7.60989      7.02481         0.709919      1.856030      0.526775
O      13.35269      7.83866      6.96120         0.208451      0.896792      0.674010
O       1.95140      7.74940     11.33312        -0.079544     -1.143293      0.572335
O      13.34220      7.82863     11.41652         0.381726      0.074300      0.250746
O       1.86683     11.56839      2.63600         0.517343     -0.532215      0.401749
O       1.89451     11.57649     15.69555         0.042834     -0.828722      1.070135
O      13.42258     11.69235      2.72442         0.013233      0.011285      0.087818
O      13.37004     11.63994     15.70673        -0.082496      0.337312      1.095734
O       1.89283     11.46563      7.01891         0.279788      1.124913      0.420254
O      13.39585     11.71298      7.06226         0.032612     -0.483809      0.284141
O       1.96429     11.54569     11.48683        -0.679693     -0.041540     -0.159251
O      13.36576     11.71380     11.38284         0.312017     -0.187172      0.214434
O       5.76763      3.86963      2.79047        -0.220797      0.325360     -0.098575
O       5.75724      3.91027     15.82487        -0.222906     -0.178031      0.151215
O       5.71916     15.43505      2.60992         0.380759     -0.419271      0.652363
O       5.71337     15.39799     15.81924         0.276589      0.137512      0.102776
O       5.76856      3.88227      7.03788        -0.230252      0.068987      0.339957
O       5.71115     15.43713      7.08228        -0.115239     -0.002090      0.371883
O       5.74147      3.89585     11.47745        -0.055788      0.361245     -0.142900
O       5.81183      0.11740     11.45721        -0.396458     -0.661014      0.365601
O       5.81183      7.76882      2.68991        -0.285984     -0.541833      0.489592
O       5.73355      7.73161     15.83870        -0.305536      0.088177      0.219053
O       5.74616      7.68743      7.05174        -0.466109      0.467284      0.187774
O       5.79826      7.76835     11.51007        -0.659494     -0.055370     -0.420660
O       5.75847     11.57756      2.64070         0.128951     -0.047573      0.700522
O       5.82627     11.57270     15.68055        -0.578566      0.303326      0.840753
O       5.73370     11.60696      7.06814         0.382039     -0.035806      0.282824
O       5.73002     11.64862     11.32679        -0.079185     -0.683861      0.251361
O       9.58464      3.95792      2.75179         0.121188     -0.610074      0.098693
O       9.60492      3.97801     15.84289        -0.243247     -0.446983     -0.058922
O       9.62668     15.46532      2.67610        -0.223348      0.499519      0.146339
O       9.52455     15.45759     15.72825         0.180891      0.194067      0.609220
O       9.69976      3.92487      7.12719        -0.613977      0.479803     -0.014407
O       9.59096     15.47886      7.06576         0.135847      0.233197      0.225804
O       9.46711      3.93193     11.40452         0.432420      0.603795      0.301379
O       9.60610     15.48689     11.40717        -0.284951     -0.292133      0.339948
O       9.56952      7.76229      2.74041         0.283205      0.310486      0.065873
O       9.55339      7.72650     15.93597         0.526851      0.419382     -0.344767
O       9.57036      7.82769      7.02133         0.189275     -0.226836      0.090619
O       9.67239      7.76359     11.34417        -0.657955      0.452634      0.449235
O       9.57087     11.66772      2.64698         0.003335     -0.680462      0.607272
O       9.53406     11.58641     15.72832         0.144676      0.392770      0.567956
O       9.57494     11.67178      6.89930        -0.455738     -0.119341      0.602422
O       9.53673     11.66363     11.43611         0.216604      0.237674     -0.040435
