  # total energy = -7877.40503400 
CRSYTAL
PRIMVEC
    15.3600000000000000    0.2300000000000000    0.0000000000000000
     0.0000000000000000   15.3600000000000000    0.0000000000000000
     0.0000000000000000    0.0000000000000000    17.440000000000000
PRESSURE
1.9556 2.15791 7.29743 -0.003601 -0.132828 -1.54918
PRIMCOORD
320 1
Pb       3.88571      3.84041      4.22627        -0.376669      0.412679      0.006138
Pb       3.73877      3.93507     17.30849         0.242176      0.096887      0.093017
Pb       3.70251     15.38095      4.53400         0.114964      0.110184     -0.946211
Pb       3.72233     15.29462      0.00946         0.549489      0.116212     -0.531742
Pb       0.15555      3.74067      4.16075        -0.653356      0.498542      0.676965
Pb       0.01374      3.71104     17.28352        -0.097925      0.694574      0.455680
Pb      15.27598      0.26499      4.42783         0.261911      0.099905     -0.158520
Pb      15.26237     15.46368     17.31334         0.290311      0.750462      0.165372
Pb       3.89091      3.91428      8.63296        -0.443313     -0.303700      0.100709
Pb       3.74685      0.16846      8.84006         0.203458     -0.049082     -0.578716
Pb       0.09729      4.26430      8.77182        -0.312590     -1.716820      0.125833
Pb       0.08565     15.26766      8.72920        -0.814737      0.580700     -0.965505
Pb       4.07304      3.99539     13.01219        -0.984802     -0.184115     -0.454142
Pb       3.82375      0.20664     13.12386        -0.363712     -0.416564     -0.631726
Pb      15.34274      4.14781     12.98506         0.055506      0.191720     -0.237570
Pb      15.34986      0.31354     13.09043         0.027755     -0.611242     -0.937234
Pb       3.89206      7.73574      4.37587        -0.064311      0.044884     -0.448522
Pb       3.80588      7.84442     17.35089        -0.062004     -0.686657      0.159622
Pb      15.17232      7.70645      4.30254         0.500385      0.473930     -0.422155
Pb      15.32504      7.92593     17.31473        -0.135664     -0.293422      0.318781
Pb       3.69181      7.66455      8.53766         0.411759      0.796551      0.661388
Pb      15.16819      8.03181      8.71085         0.729356      0.047339      0.201039
Pb       3.85532      7.75695     12.90170        -0.104400     -0.224850     -0.474324
Pb       0.02128      7.68819     13.00308        -0.144071     -0.250971      0.095451
Pb       3.85962     11.54924      4.16009        -0.126466     -0.060251      0.776491
Pb       3.80271     11.63162     17.38489         0.133647     -0.237084      0.596129
Pb       0.05260     11.60304      4.20947        -0.136467     -0.976613      0.061967
Pb       0.17739     11.51644      0.10453        -0.293855     -0.953962     -0.798919
Pb       3.63348     11.56951      8.57796         0.747357     -0.481251     -0.332673
Pb      15.27510     11.78650      8.52770        -0.198697     -0.163099     -0.064998
Pb       3.83206     11.50976     12.89840        -0.338598     -0.004338      0.401441
Pb       0.04864     11.35141     13.04337        -0.322856      0.684847     -0.388104
Pb       7.53671      3.78404      4.35326         0.186226      0.246958     -0.360129
Pb       7.54035      3.98628     17.38585         0.788799     -0.277257     -0.371888
Pb       7.42024     15.44813      4.41441         0.662132      0.069340     -0.980129
Pb       7.69781      0.21880     17.40646         0.090678     -0.865977     -0.139633
Pb       7.58663      4.06146      8.59064         0.743438     -0.885825      0.172747
Pb       7.66935     15.43164      8.73651         0.269229      0.358914     -0.286272
Pb       7.68062      3.84976     12.99787         0.421763      0.023142     -0.702463
Pb       7.62080     15.19661     13.15460         0.493291      0.525358     -0.441801
Pb       7.77177      7.64125      4.43269        -0.831505      0.968718     -0.190555
Pb       7.80278      7.82468      0.18114        -0.149681     -0.176389     -0.875455
Pb       7.86784      7.87946      8.58616        -1.208772      0.312917      0.158654
Pb       7.62458      7.81470     12.99928        -0.641788     -0.134644     -0.058065
Pb       7.72891     11.93328      4.46207        -0.592534     -1.576616     -0.377385
Pb       7.69108     11.51232      0.06197        -0.187424      1.040364      0.569957
Pb       7.55659     11.77733      8.83652         0.404632     -0.960646     -0.996689
Pb       7.75739     11.61218     13.23613        -0.189044     -0.147284     -0.903789
Pb      11.49056      4.03937      4.43916        -0.024626     -0.537913     -0.648591
Pb      11.45399      3.88783      0.04570         0.053470      0.111786     -0.648875
Pb      11.62089      0.27141      4.22564        -1.209526     -0.423084      0.203716
Pb      11.37444     15.26938      0.08949         0.022132      0.990093     -0.497245
Pb      11.48753      3.96847      8.74675        -0.102729      0.189924     -0.188053
Pb      11.58979      0.17432      8.75402        -0.186948     -0.004520     -0.812519
Pb      11.50851      3.95566     13.10833        -0.421845      0.430775     -0.599214
Pb      11.62277     15.30542     12.97156        -0.608042      0.366186      0.209053
Pb      11.36135      7.94415      4.19962         0.907884     -0.041354      0.308259
Pb      11.56239      7.69498     17.43389         0.247375      0.852349     -0.191468
Pb      11.50471      7.80385      8.55375         0.284895      0.253301      0.471044
Pb      11.45019      7.70094     13.10445         0.425993      0.298045     -0.055506
Pb      11.68779     11.58286      4.21477        -0.872497      0.489177     -0.016740
Pb      11.59192     11.64165     17.36295        -0.121623     -0.586085      0.096977
Pb      11.35743     11.68406      8.45493         0.810369     -0.151651      0.918004
Pb      11.55181     11.58020     13.01164        -0.101164     -0.289595     -0.105953
Ti       1.93003      1.79228      2.24579         0.277286      1.314977      0.929761
Ti       1.88585      1.87605     15.43348         0.773288      0.364455      0.166334
Ti       1.90581     13.44345      2.29867         0.570497     -0.467906      1.592656
Ti       1.86189     13.40566     15.29796         1.352343     -0.217197      0.838113
Ti      13.42140      2.05980      2.22594        -0.299885      1.515394      0.627235
Ti      13.30223      1.95538     15.32565         0.097639      0.866489      4.940709
Ti      13.47098     13.63735      2.18924        -0.740525     -0.768846      3.580252
Ti      13.47848     13.58441     15.35428        -0.733758     -0.760679      2.232454
Ti       1.89402      2.00319      6.71645        -0.627047     -0.323488      2.706120
Ti       1.87762     13.46235      6.63683        -0.140698      0.633675      2.063778
Ti      13.44497      2.19371      6.78909         0.541364     -0.780316      1.454804
Ti      13.36190     13.61824      6.48917         0.383311      0.734255      1.891602
Ti       1.85847      2.02018     11.03773         0.909486     -0.393066      1.351121
Ti       1.90301     13.52922     10.98949        -0.500374     -0.734882      3.404237
Ti      13.33120      2.06867     10.99691         0.849553      0.410262      2.154954
Ti      13.43358     13.48090     10.98937         0.734678      0.497128      2.681380
Ti       1.86992      5.79843      2.28594         0.491675     -0.492196      1.352024
Ti       1.87931      5.77890     15.35114         0.095490      0.005425      0.772568
Ti      13.33889      5.88294      2.29054         0.906298      0.452882     -0.224051
Ti      13.41019      5.88108     15.42822         0.284430      1.076570      0.676047
Ti       1.88697      5.82093      6.58902         0.055873     -0.641303     -0.835394
Ti      13.48295      5.94474      6.66068        -0.741178     -1.139108      1.030745
Ti       1.89609      5.84089     10.99713        -0.001222      0.019110      2.104999
Ti      13.32610      6.01500     11.08167         0.267029     -0.706474      2.518003
Ti       1.89693      9.48722      2.38994        -0.175371      1.197633      0.187885
Ti       1.93771      9.59704     15.38906        -1.080487     -0.566495      1.564042
Ti      13.44538      9.74652      2.19712        -0.018957     -0.662537      1.871456
Ti      13.39517      9.79399     15.36350         0.359674     -0.507538      1.977287
Ti       1.84682      9.52942      6.59532         0.777742      1.306896      0.315567
Ti      13.40233      9.69695      6.53967         0.287652      1.235048      2.529913
Ti       1.80580      9.65219     10.89356         0.431171     -0.704697      0.616119
Ti      13.37542      9.69180     10.98887        -0.194300      0.412176      1.318081
Ti       5.68362      1.89919      2.20066         0.313620     -0.037139      1.905271
Ti       5.68303      1.90945     15.37042        -0.008946      0.101126      2.037674
Ti       5.67272     13.51899      2.28744         0.371659      0.247963      0.753544
Ti       5.75768     13.44522     15.51558         0.158896      0.692750      2.761618
Ti       5.75079      1.93667      6.75474        -0.392469      0.287279      2.755929
Ti       5.71112     13.47300      6.71485        -0.321486     -0.464089      2.085120
Ti       5.77952      1.92054     11.01209        -0.335558      0.257490      0.127238
Ti       5.73026     13.43737     11.02182        -0.100558      0.465839      1.340841
Ti       5.77051      5.89358      2.24040        -0.760024     -0.378347      4.379750
Ti       5.79669      5.85803     15.36399        -0.375459      0.328418      3.029715
Ti       5.73925      5.91233      6.67011        -0.473149     -0.576262      2.213675
Ti       5.81074      5.83524     10.78586        -0.921481      0.466787      4.741441
Ti       5.81212      9.68431      2.41334         0.017891      0.349433      2.141583
Ti       5.72705      9.70902     15.40265        -0.006068     -0.451895      1.381810
Ti       5.78342      9.67071      6.64809        -0.742278      0.667648      1.787258
Ti       5.73197      9.74996     10.91735         0.250905     -1.487826      1.197936
Ti       9.54589      2.03514      2.31947        -0.133837     -0.828117      2.761408
Ti       9.60913      1.99961     15.32855        -0.333292      0.149576      4.460801
Ti       9.58178     13.53775      2.34221        -0.461003      0.726582      0.483164
Ti       9.64739     13.46923     15.49311        -1.067715      1.277139     -0.655165
Ti       9.57827      2.01883      6.66549        -0.166118      0.558168      0.943079
Ti       9.55343     13.57639      6.62480        -0.119527      0.127327      2.436286
Ti       9.69448      1.96427     11.05401        -1.560796      0.631226      0.734569
Ti       9.56988     13.47877     11.11710         0.042669      0.337610      1.196098
Ti       9.57109      5.85734      2.38350        -0.801407     -0.590319      0.880590
Ti       9.61561      5.90659     15.45373        -0.160492     -0.874087      1.794412
Ti       9.58562      5.90374      6.63800         0.532564     -0.908481      2.540591
Ti       9.47719      5.94827     10.97222         1.210169     -1.571832      1.644379
Ti       9.48089      9.77250      2.39436         0.527045      0.869277      1.605548
Ti       9.49599      9.74636     15.44561         1.884281     -0.568126      2.785292
Ti       9.57478      9.73791      6.61677        -0.786312      0.866399      0.030776
Ti       9.56340      9.63765     10.99508         0.048478      1.103469      1.257343
O       1.93213      1.89819      0.51882        -0.288386     -0.325194     -0.645981
O       2.02454      1.87685     13.70193        -0.314688     -0.037652     -0.989821
O       1.97978     13.36080      0.59920        -0.411235      0.343976     -2.262476
O       1.80716     13.31823     13.59242         0.297024      0.170073     -0.848254
O      13.33974      2.12937      0.52203         0.522190     -0.372839     -0.741443
O      13.27691      1.80156     13.68573         0.211761      0.397649     -2.862823
O      13.51293     13.54389      0.51584        -0.255025      0.122658     -2.009684
O      13.43036     13.59931     13.67034        -0.078472      0.048968     -1.910056
O       1.93912      1.95024      5.02585        -0.210483     -0.229564     -2.066741
O       1.89620     13.52841      4.94402        -0.177995      0.019692     -2.295306
O      13.42853      2.14306      5.06410        -0.043313     -0.075762     -1.395688
O      13.42924     13.66007      4.75648         0.228242      0.177829     -0.917757
O       2.02983      1.97431      9.35008        -0.413410     -0.316521     -2.212363
O       1.79785     13.50769      9.30565         0.078677     -0.134709     -2.004406
O      13.22353      2.16080      9.30826         0.141485     -0.315849     -1.467367
O      13.44659     13.50053      9.31853         0.016788      0.173629     -1.856026
O       1.94843      5.84319      0.57216        -0.027991     -0.130573     -0.408823
O       1.74803      5.81913     13.62346         0.349550     -0.143638     -1.386097
O      13.35160      6.07839      0.55554         0.039570     -0.699400     -0.232825
O      13.31714      5.91933     13.68232         0.036899     -0.182354     -0.794776
O       1.75135      5.69186      4.82296         0.451536      0.383026      0.732357
O      13.53629      5.90094      4.97000        -0.454802     -0.354018     -1.860285
O       2.03440      5.97263      9.30572        -0.648264     -0.591858     -1.686229
O      13.41684      6.00077      9.41507        -0.031715      0.272752     -3.325904
O       1.97043      9.52171      0.62737        -0.274696      0.040739     -0.342828
O       1.85278      9.63580     13.68103         0.164422     -0.211469     -1.491297
O      13.50423      9.69385      0.50979        -0.212986      0.486303     -1.452413
O      13.40710      9.80215     13.65398         0.068515      0.095503     -1.506473
O       1.81966      9.56068      4.86530        -0.003143      0.241026     -0.694561
O      13.53620      9.82250      4.87657        -0.365562     -0.222574     -1.820252
O       1.72225      9.51325      9.17897         0.333668      0.245809     -0.949072
O      13.32909      9.71793      9.26928         0.223120     -0.275096     -1.573047
O       5.79853      1.79300      0.49869        -0.384245      0.572822     -1.023473
O       5.47607      1.90753     13.63239         0.551286      0.275428     -0.615680
O       5.58018     13.59013      0.57249         0.219087     -0.070258     -1.030855
O       5.84620     13.41616     13.83819         0.247156     -0.027866     -2.763832
O       5.67918      2.09069      5.09077         0.199304     -0.434601     -2.933242
O       5.81820     13.49336      5.01735        -0.583477      0.501963     -1.968676
O       5.59001      1.93036      9.27187         0.474007     -0.169306     -0.531771
O       5.83676     13.37267      9.30761        -0.130001      0.369888     -1.122785
O       5.82095      5.87482      0.58268         0.216061      0.038490     -2.524525
O       5.75763      5.78129     13.69457         0.113092     -0.125967     -2.355694
O       5.70108      5.78393      4.99873         0.014064      0.085544     -2.222009
O       5.82003      5.85132      9.12613        -0.140278      0.067590     -2.279705
O       5.88047      9.67091      0.73605         0.099449     -0.267167     -2.668675
O       5.67472      9.76310     13.70121         0.105892     -0.056664     -1.236451
O       5.62465      9.70305      4.97269         0.158183     -0.210807     -2.305841
O       5.90078      9.94154      9.23333        -0.346957     -0.571882     -0.920965
O       9.55168      2.02084      0.64288         0.014174      0.123036     -2.453166
O       9.68297      1.96400     13.69769        -0.065427     -0.008940     -3.496534
O       9.72927     13.63278      0.59272        -0.253826     -0.527928     -0.372820
O       9.58291     13.52648     13.66370        -0.371743     -0.279775      0.225935
O       9.58520      2.03435      4.92346         0.050193      0.156304     -0.104347
O       9.44729     13.46095      4.95833         0.430804      0.672838     -1.939072
O       9.83690      2.05611      9.34641        -0.241913     -0.013981     -1.279450
O       9.49527     13.51886      9.42449         0.047868     -0.139590     -1.951497
O       9.48960      5.82121      0.64906         0.026818      0.373257     -0.226171
O       9.75536      5.80819     13.76607        -0.411639      0.332470     -2.077291
O       9.54872      5.97172      4.95256         0.358440     -0.299870     -1.867863
O       9.37719      5.92683      9.26192         0.477599      0.248497     -1.148329
O       9.41961      9.82080      0.68752        -0.128914     -0.577757     -2.196101
O       9.57465      9.76972     13.77254        -0.153723     -0.136708     -2.186909
O       9.54333      9.78699      4.89441         0.439262     -0.321975     -0.733388
O       9.61477      9.68853      9.27707        -0.204533     -0.210533     -0.934684
O       3.81132      1.92490      2.78950        -0.308392     -0.126202     -0.321951
O       3.74180      1.95908     15.91674         1.305028     -0.165011     -0.236931
O       3.73991     13.49258      2.69758         0.786058     -0.038411      0.541572
O       3.80698     13.39629     15.74908        -0.347331     -0.027543      0.140651
O       0.02967      1.79947      2.82544        -0.513931     -0.058748     -0.855564
O       0.00437      1.85217     15.74979        -1.095728     -0.306163     -0.028220
O      15.35958     13.62182      2.53387        -1.068292      0.310835      0.538292
O       0.00443     13.54002     15.78280        -0.136830     -0.764153      0.021424
O       3.80881      1.85144      7.07153         0.122551      0.374555      0.572941
O       3.77752     13.42915      7.17911         0.241933      0.489899     -0.335954
O      15.35304      2.13458      7.27608         0.197829     -0.084453     -0.488292
O      15.26454     13.78705      7.03867         0.655448     -0.530360      0.010262
O       3.77842      2.08536     11.34288         0.442403     -0.425576      1.075453
O       3.89462     13.30591     11.41592        -1.295949      0.223102     -0.201260
O      15.25807      2.16424     11.55884        -0.002385     -0.397115     -0.268854
O      15.33580     13.68928     11.57784         0.107490     -0.056905     -0.724992
O       3.79164      5.87161      2.78102         0.786719     -0.298352     -0.474586
O       3.77727      5.86452     15.79018         1.407390     -0.209744     -0.036904
O      15.27767      5.83998      2.75503         0.207651      1.007297     -0.522762
O       0.00793      5.69880     15.78532        -0.663589     -0.055387      0.179080
O       3.73906      5.75950      7.09804         0.914481      0.700782     -0.344472
O       0.03754      5.78304      7.06524        -0.636696      0.362072      0.385656
O       3.85780      5.88737     11.37504         0.230167     -0.591044      0.044875
O      15.30231      6.09743     11.32582         0.291180     -0.971939      0.610805
O       3.87976      9.73106      2.74073        -0.708381     -1.029387      0.131542
O       3.83932      9.74234     15.87634         0.200586     -0.909038     -0.298590
O      15.28868      9.74765      2.70879         0.561305      0.370712     -0.170322
O      15.33968      9.81103     15.92741         0.772234      0.321172     -0.567892
O       3.75564      9.59434      7.00264        -0.416427      0.523804      0.477834
O      15.33751      9.72812      7.11815        -1.358203      0.435335     -0.364609
O       3.75742      9.53510     11.25652         0.529585      0.587681      0.401397
O      15.30984      9.73296     11.27246        -0.067574      0.031999      0.711078
O       7.58701      1.86637      2.74110        -0.049997      0.482832      0.145103
O       7.65264      1.96018     15.64344        -0.473032      0.004318      0.183946
O       7.60690     13.59128      2.74473         0.084335      0.374632      0.103532
O       7.76842     13.57328     16.00907        -1.180422     -0.379729     -0.667574
O       7.63302      2.02295      7.15216         0.869578      0.130567      0.029895
O       7.64140     13.47030      7.03402         0.830700      0.210496      0.661223
O       7.68110      1.91103     11.32782        -0.736713      0.454066      0.569954
O       7.63743     13.45364     11.60179        -0.340543      0.253669     -0.100523
O       7.66522      5.89065      2.93230        -0.551190     -0.268316     -0.944001
O       7.73755      5.81378     15.86776        -1.112616      0.220919     -0.115132
O       7.64216      5.89860      7.06338         0.497540      0.369703     -0.267754
O       7.64276      5.73850     11.46280        -0.164573      0.273750     -0.005711
O       7.69988      9.70609      2.86754        -1.648481     -0.322774      0.066537
O       7.65052      9.87308     15.82616        -0.141938     -0.768520     -0.126884
O       7.64918      9.76647      7.00824         0.688894     -0.942227      0.223119
O       7.62002      9.58458     11.48141         0.317542      0.490854     -0.025729
O      11.46999      2.10327      2.73209         0.787588      0.259209      0.150811
O      11.46666      2.09167     15.87209         0.761377     -0.037829     -0.336003
O      11.43122     13.55275      2.81720         1.384555     -0.100055     -0.491634
O      11.49351     13.51552     15.83019         1.154617      0.039105      0.185878
O      11.46611      2.20214      7.16369         0.595784     -0.315700     -0.369529
O      11.45259     13.60287      7.01683         0.231144     -0.144068     -0.121053
O      11.50804      1.94373     11.53974         0.511252      0.339360      0.238940
O      11.50430     13.43133     11.45902        -0.032036      0.334081     -0.091182
O      11.42341      6.04112      2.77274         0.462082     -1.127729      0.150886
O      11.50317      5.90170     15.89100         0.516314      0.173535      0.213583
O      11.55134      5.94264      7.04928        -0.593294     -0.404020     -0.105129
O      11.43840      6.01721     11.42858        -0.971039      0.131292      0.065584
O      11.42558      9.78208      2.58867         1.041942     -0.003266      0.668725
O      11.54159      9.74060     15.83143        -0.840854      0.462751      0.165042
O      11.48507      9.78367      7.03350         0.876091     -0.147383     -0.302603
O      11.47736      9.58974     11.38422        -0.717825      0.450903      0.471522
O       1.94552      3.84702      2.67482        -0.046987     -0.607700     -0.248253
O       2.00927      3.89121     15.77379        -0.833905     -1.007401      0.120431
O       1.93994     15.33523      2.77300        -0.318243      0.194503      0.063193
O       1.97740     15.27394     15.77383        -0.425861      0.618213     -0.017899
O      13.43418      3.98616      2.57660        -0.544034     -0.146214      0.538574
O      13.50464      4.07951     15.98836        -0.898224     -1.481600     -1.119222
O      13.32709     15.55441      2.57607         0.574077     -0.935528      0.225486
O      13.26993     15.45974     15.87330         0.806910      0.686751     -0.223653
O       1.95015      3.92806      7.15387        -0.333745     -0.452977     -0.095702
O       1.93747     15.36421      7.02638        -0.306033      0.460984      0.666237
O      13.52337      4.06695      7.26441        -0.373608      0.266319     -0.291558
O      13.43346     15.50684      7.11375        -0.680778      0.747313      0.057485
O       1.74921      3.84238     11.39629         0.181606      1.524533      0.239152
O       2.02985     15.37863     11.38368        -0.517323     -0.013785      0.300043
O      13.22173      4.10013     11.44718         0.768574     -1.263320      0.256551
O      13.39907     15.50631     11.38717        -0.058463     -0.345165     -0.105149
O       1.85192      7.71202      2.83325         0.192376     -1.249592     -0.166598
O       1.85596      7.61512     15.87541         0.587727      1.796178     -0.395125
O      13.33677      7.80956      2.59528         0.257310      0.530536      0.902952
O      13.45015      7.89643     15.74448        -0.140874     -0.974116      0.278655
O       1.85261      7.71100      7.02999         0.211268     -0.927192     -0.125432
O      13.35756      7.82298      6.95162         0.401811      0.836901      0.420482
O       1.82888      7.68326     11.41860         0.461795      0.629300      0.456801
O      13.44720      7.87138     11.58646        -0.440715      0.020980     -0.051304
O       1.92833     11.49825      2.65603        -0.733252      0.276292      0.416133
O       1.94018     11.43538     15.79174        -0.800277      1.532536      0.315782
O      13.43134     11.63430      2.69474         0.131636      1.253700     -0.444710
O      13.46829     11.71303     15.75492         0.059140      0.337254      0.297727
O       1.80530     11.61341      7.02704        -0.129011     -1.303381      0.180993
O      13.48604     11.76878      6.88444        -0.287696     -0.957552      0.268352
O       1.76465     11.50256     11.35262         0.614605      0.160157      0.016211
O      13.42415     11.57523     11.43174        -0.023999      0.655614      0.209171
O       5.74623      3.81343      2.72660         0.066076      0.883635     -0.437922
O       5.76160      3.91156     15.85634        -0.384548     -0.446285     -0.391247
O       5.61051     15.38892      2.78381         0.187226      0.616692      0.489357
O       5.62668     15.38598     15.86612         0.392507      0.714906     -0.521190
O       5.73647      3.92606      7.14866        -0.117290      0.026803     -0.099495
O       5.89880     15.36749      7.14622        -0.862089      0.463873     -0.070722
O       5.74108      3.87507     11.37064         0.308965      0.619486      0.104045
O       5.57594     15.37111     11.38126         0.598897     -0.168146      0.345905
O       5.72896      7.75110      2.80506         0.223209     -0.343060     -0.225483
O       5.81000      7.75881     15.73635        -0.016845      0.774753      0.216443
O       5.65498      7.77761      7.10737         0.436329     -0.367609     -0.283869
O       5.80629      7.72860     11.38955        -0.139649     -0.276550     -0.147805
O       5.71213     11.68129      2.70583         0.201049     -0.862528      0.220857
O       5.75380     11.61669     16.04805         0.133579     -0.769343     -0.671288
O       5.70825     11.56897      7.04939        -0.147658      0.437076      0.467152
O       5.78536     11.51422     11.47655         0.008609      0.849834      0.337943
O       9.50565      3.95775      2.84287         0.277411      0.237480     -0.135294
O       9.67099      3.99119     15.87680        -0.589870     -0.971437     -0.149821
O       9.60595     15.47331      2.73976         0.136465      0.143818      0.152142
O       9.60705     15.37962     15.90298         0.394113      1.420206     -0.256435
O       9.57302      4.03163      7.12515        -0.183323     -0.141102     -0.385631
O       9.61684      0.19243      7.13944        -0.293118     -1.122895     -0.059921
O       9.62018      3.91380     11.53235        -0.045807      0.562037      0.102728
O       9.51815     15.46882     11.34933         0.415773     -1.483198      0.750096
O       9.53183      7.84428      2.86855        -0.327837     -0.728644     -0.688675
O       9.61843      7.81616     15.98406        -0.696394      0.660671     -0.432147
O       9.67667      7.84846      7.07024        -0.688476     -0.591729     -0.097217
O       9.43939      7.76765     11.49332         0.238435     -0.137239     -0.037792
O       9.42496     11.67146      2.78924         0.706074      0.285444     -0.125616
O       9.62520     11.66929     16.00529        -0.132961     -1.361791     -0.441290
O       9.53365     11.58518      7.07518         0.215725      1.328950     -0.018663
O       9.46812     11.53933     11.47708         0.441579     -0.017639      0.197301
