  # total energy = -7882.24256141 
CRSYTAL
PRIMVEC
    15.3600000000000000    0.0000000000000000    0.0000000000000000
     0.0000000000000000   15.3600000000000000    0.0000000000000000
     0.2400000000000000    0.0000000000000000    17.440000000000000
PRESSURE
1.77676 1.65343 2.6819 -0.129042 -0.901787 -0.043239
PRIMCOORD
320 1
Pb       3.90914      3.77624      4.35305         0.172729     -0.200651     -0.470155
Pb       4.14586      3.83951     17.37635        -0.958751     -0.289005      0.620361
Pb       3.97856     15.35910      4.34228        -0.203595      0.042260     -0.069686
Pb       3.68159      0.05116      0.01798         0.076575      0.249274      0.074834
Pb      15.38488      3.83088      4.34066        -0.116303     -0.099926     -0.239304
Pb       0.29018      3.83334     17.35465        -0.170492     -0.235285      0.474551
Pb       0.06661      0.17537      4.36901        -0.355735     -0.532479      0.111058
Pb      15.41662     15.24840     17.43410         0.215151      0.534131     -0.379533
Pb       4.01037      3.81152      8.67853         0.014299      0.365209     -0.255799
Pb       3.91329     15.31461      8.68929         0.054791     -0.205213     -0.492499
Pb       0.25873      3.79770      8.75164        -0.446009     -0.230465     -0.112262
Pb      15.36796     15.33154      8.73305         0.346986      0.329067     -0.801639
Pb       4.04157      3.84744     12.96810        -0.315321      0.168961      0.302779
Pb       3.96483     15.33153     13.12810         0.276309     -0.482251     -0.186336
Pb      15.50178      3.91265     12.90805         0.302810     -0.289001      0.276815
Pb      15.52041      0.14814     13.09714         0.028903     -0.580322      0.022150
Pb       3.84024      7.68044      4.32806         0.256183     -0.225442      0.024680
Pb       3.90598      7.62596     17.35330         0.120368     -0.133908      0.412460
Pb       0.09030      7.56785      4.24230        -0.059026      0.032797      0.277292
Pb      15.49662      7.71603     17.38341         0.537313     -0.504587      0.239680
Pb       3.96733      7.60593      8.67811        -0.478676      0.265328     -0.105145
Pb      15.42262      7.61154      8.58856         0.365657      0.517462      0.532674
Pb       4.00329      7.68104     13.08692        -0.013272      0.116810     -0.399498
Pb      15.47818      7.58848     12.95198        -0.209578     -0.104479      0.157986
Pb       3.93457     11.42597      4.29250        -0.461878      0.334341      0.326552
Pb       4.03492     11.54253     17.30272         0.310176     -0.318065      0.774910
Pb       0.11626     11.58796      4.38151         0.325048     -0.199172     -0.060103
Pb      15.53500     11.48972     17.36916         0.463347     -0.280419      0.192794
Pb       3.94920     11.51070      8.71761        -0.269798     -0.372573     -0.430590
Pb      15.39916     11.49936      8.73057         0.579579     -0.259908     -0.652048
Pb       4.02597     11.57753     12.99486         0.031025     -0.319027      0.278086
Pb       0.24972     11.57024     13.09447        -0.570153      0.079522      0.118306
Pb       7.75710      3.92171      4.31582        -0.458874      0.001040     -0.072827
Pb       7.88849      3.85170     17.35612         0.327699     -0.517656      0.010516
Pb       7.75932      0.00673      4.27912        -0.475907     -0.028036      0.590393
Pb       7.81766      0.01307     17.43378         0.041391      0.141833     -0.076180
Pb       7.85588      3.82945      8.67020        -0.354561     -0.207250      0.210428
Pb       7.72120      0.00393      8.74257         0.033832     -0.076242     -0.564289
Pb       7.85727      3.72585     13.09059        -0.156059      0.349931     -0.584979
Pb       7.92799     15.18244     13.14050        -0.671051      0.140457     -0.271693
Pb       7.69402      7.72847      4.33604        -0.067876     -0.012073     -0.467912
Pb       7.88468      7.61617     17.39642         0.124579     -0.014937     -0.115044
Pb       7.80904      7.70195      8.55340         0.300737      0.035472      0.573040
Pb       7.76752      7.66384     13.04963        -0.009202     -0.212788     -0.548098
Pb       7.53673     11.61186      4.35225         0.898093     -0.604422     -0.165415
Pb       7.91716     11.40830     17.34911        -0.201158      0.450973      0.188768
Pb       7.88316     11.53968      8.65922        -0.634761      0.196835     -0.032188
Pb       7.74342     11.40039     13.07495        -0.098294      0.374486     -0.207122
Pb      11.50465      3.80216      4.23854         0.105398     -0.157089     -0.155601
Pb      11.89760      3.78162     17.43804        -0.173034     -0.157008     -0.507908
Pb      11.53490     15.26924      4.19777         0.470920      0.816147      0.485953
Pb      11.60834     15.15345     17.39221         0.921354      0.346819      0.418131
Pb      11.50485      3.78320      8.68012         0.265839     -0.193035      0.068321
Pb      11.65974     15.28777      8.66944        -0.181890      0.248518     -0.284679
Pb      11.67220      3.83469     12.98412        -0.008406     -0.043893      0.074401
Pb      11.74856      0.19589     13.00593        -0.230128     -0.625367      0.168201
Pb      11.59060      7.68659      4.20203        -0.562997      0.188584      0.045222
Pb      11.53276      7.68515      0.03140        -0.146758     -0.048373     -0.383001
Pb      11.69942      7.67557      8.69950        -0.145151      0.226556     -0.233271
Pb      11.48310      7.73699     12.97777         0.686929      0.115801     -0.132122
Pb      11.48044     11.54694      4.43298        -0.058763     -0.297376     -0.677470
Pb      11.87293     11.36609     17.43516        -0.489863      0.112847     -0.235096
Pb      11.62589     11.45996      8.73077        -0.011769      0.328659     -0.431597
Pb      11.69818     11.53675     13.02878        -0.158074     -0.506462      0.410028
Ti       1.91136      1.85726      2.34128         0.746394      0.637623     -0.009020
Ti       2.11330      1.93335     15.27631        -0.296988     -0.509485      2.041886
Ti       2.00947     13.47118      2.37907         0.371517     -1.070753      1.978758
Ti       2.08519     13.45714     15.47372         0.927181     -0.280661     -0.206427
Ti      13.44084      1.86734      2.24335        -0.156048     -0.437127     -0.938790
Ti      13.63551      1.82025     15.40209         0.038140      0.631443      0.732698
Ti      13.54274     13.32068      2.37438         0.489201      0.615757      0.052373
Ti      13.65202     13.33952     15.34115        -0.425078      1.105004      0.085129
Ti       2.06423      1.90150      6.67129        -0.906248     -0.807206      0.979286
Ti       1.97165     13.40756      6.68123        -0.130725     -0.112524      0.608406
Ti      13.48115      1.96055      6.78169         1.170379     -1.033167     -0.306961
Ti      13.50205     13.41937      6.64624        -0.169261      0.926046      1.629405
Ti       2.17225      1.81441     11.00893        -1.417422      1.470454      1.513065
Ti       1.97787     13.39750     11.04319         0.863837      0.589221     -0.103647
Ti      13.62333      1.90441     10.99099         0.137354     -0.504938     -0.358369
Ti      13.49819     13.47494     11.07202         0.713821     -1.149645      1.374611
Ti       1.98724      5.63229      2.37674        -1.246689      0.152876     -2.042651
Ti       2.07272      5.67768     15.32205         0.448645      1.013840      0.026755
Ti      13.44907      5.67480      2.31727         0.259400      0.021676      0.242729
Ti      13.67230      5.75183     15.33410         0.203100     -0.722086      0.242488
Ti       1.91562      5.73144      6.73066         1.748659      0.248042      0.709601
Ti      13.48090      5.74853      6.68320         0.304515     -0.593436      1.324511
Ti       2.13362      5.76541     11.06649        -0.880109     -0.111507     -0.906254
Ti      13.50789      5.75529     10.91719         0.917991      1.287676      0.166848
Ti       1.90675      9.57521      2.34617         0.666850     -0.340985     -0.024370
Ti       2.13508      9.54482     15.36215        -0.483131      0.187312      0.045227
Ti      13.52460      9.53203      2.40591        -0.551879      0.622168      0.607842
Ti      13.70168      9.53955     15.30547        -1.058217      0.459387      0.287295
Ti       1.95590      9.59556      6.61135         0.821942     -0.231595      2.648100
Ti      13.48377      9.65254      6.54868         0.941505     -0.782505      0.484381
Ti       2.00308      9.60535     11.13054         0.973347     -0.440024     -0.355146
Ti      13.61643      9.65444     11.08204        -1.335395     -0.945512      1.175246
Ti       5.81544      1.89943      2.31686        -0.570879      0.457971      0.879381
Ti       5.93048      1.89168     15.34279         0.280417     -0.114798      1.655721
Ti       5.77985     13.42616      2.26237        -0.117797      0.063871      1.174519
Ti       5.89651     13.55018     15.55141         0.396798     -1.378283      0.353948
Ti       5.86923      1.87991      6.66974         0.268780      0.663750      1.069351
Ti       5.76383     13.39347      6.65016         1.377214      0.301085      1.637744
Ti       5.91390      1.83703     11.10592        -0.053758      0.297918      1.710065
Ti       5.84695     13.42365     11.01483        -0.046724     -0.232886     -0.120510
Ti       5.74566      5.74246      2.25609         0.405012     -0.528273      1.307382
Ti       5.96290      5.68583     15.48853        -0.041574      0.288287     -0.788774
Ti       5.89245      5.73660      6.73396        -0.668902     -0.064891      0.316115
Ti       5.91467      5.73050     10.99050         0.255819     -0.059019      1.869131
Ti       5.72940      9.58726      2.30108         0.591472     -0.783128     -0.002938
Ti       5.91551      9.53689     15.49179         0.026797      0.706101     -0.588649
Ti       5.91736      9.62248      6.69810        -1.534740     -0.240658     -0.650851
Ti       5.88126      9.55900     10.97459        -0.249953      0.107550      0.569854
Ti       9.53382      1.89937      2.24839         0.754709      0.250033      1.044524
Ti       9.86036      1.76207     15.48928        -0.645653      2.205849      0.242622
Ti       9.64078     13.41333      2.41110        -0.731637     -1.174918      0.241941
Ti       9.81269     13.34658     15.39741        -0.451200      0.108572      0.100471
Ti       9.66285      1.94437      6.65299        -0.505983     -0.976955      1.599122
Ti       9.65154     13.55768      6.68942        -0.497056     -0.820841      0.434360
Ti       9.71141      1.84749     11.00029        -0.168827      0.769806     -0.804828
Ti       9.73341     13.42457     11.02489        -0.704534     -0.353330      0.696825
Ti       9.60900      5.72529      2.24997        -0.279517      0.579440      1.176491
Ti       9.94650      5.67717     15.39647        -0.908143     -0.316761      0.302190
Ti       9.73422      5.83007      6.73034        -0.696927     -0.187696      1.046539
Ti       9.78031      5.65880     10.96926        -1.746270      0.890352     -0.990874
Ti       9.55318      9.59854      2.33216         0.372996      0.154319      0.958240
Ti       9.79292      9.54973     15.41227         0.680228      0.326173     -0.876096
Ti       9.73843      9.72528      6.54067        -0.483727     -1.140358      0.583489
Ti       9.68688      9.66471     11.01409         0.541143     -0.693345      0.841182
O       1.97466      1.94608      0.61494        -0.314168     -0.252590     -0.482773
O       2.10507      1.88712     13.55485        -0.145106     -0.234097      0.325812
O       1.90190     13.44253      0.69085         0.035028     -0.062629     -2.354473
O       2.15209     13.46328     13.72923        -0.063010     -0.141233     -0.606087
O      13.34826      1.81626      0.45623         0.446198      0.157821      0.571525
O      13.62415      1.79195     13.62695        -0.334039      0.066091     -0.552370
O      13.59417     13.19348      0.59960        -0.146099      0.462094      0.238529
O      13.53894     13.34667     13.61376         0.228127      0.253635     -0.750016
O       2.08881      1.94665      4.92112        -0.296726     -0.048783     -0.682888
O       2.06364     13.40311      4.97310        -0.066397     -0.061522     -0.987817
O      13.58349      1.81428      5.01944        -0.326764      0.594087     -0.636225
O      13.36508     13.42964      4.95407         0.206112      0.101736     -2.032271
O       1.93774      1.89514      9.27912         0.595040     -0.149672     -0.649247
O       2.10572     13.22669      9.29275        -0.353736      0.495614     -0.204919
O      13.65991      1.73659      9.22771         0.133390      0.381814      0.302855
O      13.46422     13.49239      9.35468         0.104738     -0.373742     -1.293556
O       1.80414      5.45358      0.57591         0.593972      0.764413      0.569956
O       2.10071      5.79112     13.53634        -0.307170     -0.084399      0.652147
O      13.40829      5.67609      0.58718        -0.051355     -0.006656     -0.981225
O      13.75984      5.76064     13.58553        -0.701379     -0.122453     -0.066689
O       1.94327      5.75556      4.99322         0.064091     -0.315360     -1.016812
O      13.46688      5.53740      4.95928        -0.230667      0.347423     -0.429383
O       2.00431      5.91026      9.27817         0.109580     -0.872186      0.420781
O      13.60049      5.94086      9.15265        -0.626389     -0.679898      0.561414
O       1.90765      9.50945      0.60133        -0.125583      0.031377     -0.541595
O       2.16748      9.53142     13.60593        -0.088971      0.044566     -0.179969
O      13.66063      9.70732      0.66168        -0.379646     -0.349874     -0.703960
O      13.49581      9.58438     13.60761         0.369439     -0.120466     -0.833671
O       1.83663      9.53344      4.92592         0.422488     -0.195818     -1.955939
O      13.48030      9.53160      4.80306        -0.007526      0.242488     -0.320412
O       1.93823      9.77333      9.38214         0.058373     -0.248189      0.631374
O      13.44363      9.64987      9.35652         0.253464      0.286596     -1.281914
O       5.83358      1.89877      0.60974        -0.046310     -0.167144     -1.330344
O       6.03250      1.78307     13.63692        -0.055459      0.273168     -1.239357
O       5.59737     13.35931      0.55204         0.493892      0.421379     -0.922412
O       5.82361     13.55208     13.83098         0.057648     -0.146293     -1.406809
O       5.81613      1.98850      4.97251         0.039096      0.083046     -2.172632
O       5.89965     13.31190      4.92472        -0.425769      0.505816     -0.537538
O       5.82508      1.84212      9.41638        -0.207938      0.003441     -1.922134
O       5.80041     13.36930      9.25083         0.083727      0.465089      0.090501
O       5.67285      5.58819      0.54541         0.209511      0.518065     -1.707956
O       5.95317      5.81175     13.74576         0.200194     -0.252595     -0.789064
O       5.95315      5.75490      4.98901        -0.328142     -0.053330     -0.550833
O       5.65432      5.79245      9.32170         0.609339     -0.334063     -2.000543
O       5.67164      9.49590      0.53868         0.355086      0.132418     -0.173981
O       5.91167      9.58706     13.71579         0.130243     -0.428424      0.088992
O       5.82151      9.55522      4.89511         0.290030     -0.060013      0.425696
O       5.91900      9.63578      9.25660         0.067239     -0.091243     -1.236700
O       9.45026      1.80693      0.54685         0.203915     -0.128783     -1.353253
O       9.78157      1.80295     13.74288         0.141213     -0.139908     -1.160031
O       9.61767     13.37771      0.69109         0.251975     -0.079817     -0.991747
O       9.76704     13.54605     13.63686         0.021758     -0.331719      0.410844
O       9.62851      2.02028      4.94168         0.147628     -0.184251     -1.566995
O       9.56236     13.55240      4.93413         0.644156     -0.192492     -0.969119
O       9.62291      1.95610      9.24662         0.190872     -0.146080      0.125847
O       9.64203     13.41197      9.28767         0.288756     -0.230962     -0.161952
O       9.66503      5.72131      0.56050         0.075553      0.371371     -2.259361
O       9.90223      5.73805     13.62962        -0.208635     -0.154882      0.308925
O       9.57910      5.65512      5.01348         0.407732      0.082822     -1.344703
O       9.71689      5.68245      9.12615         0.329243     -0.105620      1.474828
O       9.53874      9.68334      0.59863         0.027962     -0.051485     -1.693712
O       9.89964      9.53241     13.59277        -0.879513      0.087123      1.213177
O       9.62806      9.55440      4.80753         0.405626     -0.013267      0.163041
O       9.62570      9.67089      9.25913         0.586806      0.039551      0.084321
O       3.90882      1.86682      2.68027        -0.264118      0.029530      0.584158
O       3.97761      1.83649     15.80740         0.193173      0.386898     -0.505512
O       3.94634     13.52380      2.89888        -0.027502     -0.503149     -0.544472
O       4.01492     13.55295     15.96761         0.214810     -0.880279     -0.133794
O      15.36730      1.95128      2.66779         0.246772     -0.412854      0.422077
O      15.51386      1.78476     15.87280         1.044836      0.007731     -0.681554
O       0.20868     13.43855      2.88611        -2.077748     -0.268607     -0.042284
O       0.24779     13.39973     15.76392        -0.970989     -0.040041      0.342920
O       4.00550      2.02902      7.04090        -1.071806     -0.440327      0.587022
O       3.92507     13.42566      7.08750         0.357069     -0.254172      0.122216
O       0.12666      1.80243      7.07946         0.306675      0.320830      0.189148
O      15.41154     13.46644      6.99176         0.172156     -0.522177      0.350883
O       3.97136      1.88700     11.65708         0.437965     -0.429766     -1.026870
O       3.91834     13.49644     11.43885         0.328851     -0.047795      0.325037
O       0.24065      1.91145     11.66821        -1.268218      0.246211     -1.324738
O       0.17689     13.32514     11.45972        -1.224606      0.409968      0.002002
O       3.82705      5.67184      2.65292         0.845442      0.327474      0.588184
O       3.99845      5.64389     15.76769        -0.271961      0.490818      0.176882
O      15.34998      5.70707      2.71997        -0.087251     -0.306119      0.472738
O      15.50637      5.63927     15.87720         0.638921      0.587093     -0.538452
O       3.92550      5.74141      7.17282         0.226546     -0.410331     -0.324090
O      15.44012      5.76492      7.06085        -0.797327     -0.333625      0.075511
O       3.95380      5.70461     11.39633         0.966220      0.119438      0.482311
O      15.37446      5.83330     11.31290         0.847248     -0.537999      0.347806
O       3.86547      9.43194      2.73787        -0.194624      0.297895      0.286210
O       3.98503      9.51018     15.78519         1.084535     -0.679240      0.295921
O       0.08820      9.55564      2.79086        -0.759962     -0.140321      0.082374
O      15.56624      9.52155     15.67328         0.439722      0.446380      0.389457
O       3.95089      9.68746      6.95811        -0.028601     -0.339630      0.272562
O      15.42942      9.62712      7.07289        -0.570031      0.053233      0.041668
O       4.01876      9.52216     11.50158        -0.799962      0.402471     -0.187223
O      15.45151      9.47207     11.56117         1.247641      0.815015     -0.393269
O       7.70097      1.95687      2.79276         0.520487     -0.013703     -0.081859
O       7.84442      1.90324     15.90719         0.504058     -0.201460     -0.457953
O       7.74034     13.36424      2.67612        -0.746450     -0.225251      0.206696
O       7.84968     13.41362     15.80207         1.009506      0.230362      0.227878
O       7.71043      1.89675      7.13145         1.197968      0.006183      0.170718
O       7.78424     13.38965      7.16112        -0.496091      0.496480     -0.094596
O       7.83039      1.90180     11.37904         0.331910      0.005873      0.648885
O       7.71677     13.41525     11.50715         1.106549      0.009546      0.049456
O       7.70009      5.65356      2.60003        -0.017901      0.331831      0.308022
O       7.91847      5.66190     15.81606         0.499054      0.327971      0.096795
O       7.78744      5.74513      7.12891         0.330316      0.443054      0.165434
O       7.80859      5.57842     11.32175         0.352496      0.289295      0.408021
O       7.69327      9.65217      2.70328        -1.434685     -0.226556      0.011848
O       7.85369      9.58876     15.72280         0.735038     -0.474255      0.443436
O       7.87555      9.51501      6.98174        -0.501927      0.133323      0.163359
O       7.80325      9.66643     11.48393         0.045659     -0.500306      0.199249
O      11.56980      1.83197      2.51692        -0.977371     -0.072459      0.944049
O      11.73152      1.79977     15.81264        -0.319705      0.071840      0.193316
O      11.62512     13.45554      2.71452        -0.326541     -0.474392      0.125134
O      11.74757     13.27194     15.79643        -0.546551      0.556570      0.323354
O      11.60327      1.88613      7.04098        -0.486919     -0.024967      0.320999
O      11.56762     13.46487      7.13432         0.152655     -0.050218      0.022475
O      11.67585      1.95165     11.22005         0.474813     -0.435688      0.998683
O      11.61539     13.25703     11.43674         0.317835      0.888298     -0.385892
O      11.52237      5.89792      2.65654        -0.137111     -0.979899      0.535297
O      11.81576      5.70049     15.82546        -0.539347      0.454330      0.072822
O      11.57979      5.59880      7.16096         1.135145      0.451319     -0.463410
O      11.61847      5.76121     11.38319         0.752567     -0.561226     -0.069837
O      11.55693      9.61019      2.53543         0.805324     -0.222854      0.726949
O      11.77265      9.60957     15.79506        -0.021391     -0.009333      0.593339
O      11.64587      9.53057      6.86911        -0.503259      0.672860      0.716871
O      11.64451      9.66359     11.47858        -0.747658     -0.105317     -0.439884
O       1.90160      3.79899      2.75277         0.340564     -0.828547      0.839188
O       2.08365      3.84591     15.69342        -0.197559     -1.394029     -0.117279
O       2.02485     15.29906      2.77698        -0.214841      1.719215      0.117390
O       2.18806     15.29430     15.85882        -0.811726      1.227646     -0.121431
O      13.43947      3.78346      2.71093        -0.360977     -0.158536      0.153618
O      13.62498      3.74883     15.72227        -0.177270      0.361082      0.115314
O      13.57607     15.32316      2.63052         0.014641     -0.415747      0.374886
O      13.55925     15.27380     15.74673         0.409752     -0.704576      0.496919
O       1.97798      3.75772      7.16914         0.116838      0.937306     -0.121344
O       2.08263     15.32410      7.06392         0.260352      0.248118      0.321128
O      13.59760      3.76997      7.31701        -0.136620      1.078720     -0.652143
O      13.57646     15.32411      7.12877        -0.583508     -0.069216      0.318429
O       2.11544      3.81018     11.46091        -0.403362      0.387712     -0.346433
O       1.86587      0.04371     11.41166         1.114896     -1.725040     -0.124273
O      13.64780      3.71514     11.40781        -0.437872      1.770092     -0.328016
O      13.57107     15.32586     11.41066         0.166740      0.328497      0.446339
O       1.89415      7.54937      2.73201         0.342845      0.784516      0.231406
O       2.05033      7.59842     15.90960         0.141312     -0.024963     -0.547551
O      13.45472      7.57076      2.70313         0.435417      1.427760      0.118168
O      13.69370      7.67264     15.80754        -0.274740     -0.348753      0.071328
O       2.05021      7.61261      7.15381        -0.302305      1.013747     -0.516701
O      13.55226      7.69444      7.07079        -0.547527     -0.432691     -0.478713
O       2.13338      7.62800     11.49648        -0.429922      0.884191     -0.028806
O      13.45539      7.69454     11.38570         0.173712     -0.620095      0.036822
O       2.07062     11.44345      2.80043        -0.227006      0.276052     -0.148069
O       2.29656     11.42908     15.83065        -1.126930      0.551037     -0.529362
O      13.64217     11.48826      2.82951        -0.587940      0.162150     -0.006459
O      13.72285     11.52616     15.77612         0.147254     -1.447182      0.234595
O       1.99833     11.46580      7.10907        -0.260902      0.552447     -0.097283
O      13.45012     11.53953      7.06380         0.128102     -0.646322      0.151504
O       2.07973     11.55541     11.58185         0.042409     -1.194574     -0.051220
O      13.63938     11.51889     11.54840         0.060855      0.097370     -0.342872
O       5.76207      3.83470      2.60728        -0.005929     -0.215747      0.925618
O       5.89354      3.74990     15.80041         0.528623      0.295770     -0.087030
O       5.92110     15.31550      2.77595        -0.280985      0.184954     -0.315487
O       5.95955      0.05365     15.84003         0.063263     -0.317673      0.537520
O       5.95846      3.86218      7.13501        -0.538510      0.006123      0.210344
O       5.89196      0.02577      7.04701        -0.561174     -1.348954      0.302887
O       5.88524      3.79682     11.51918        -0.063814     -0.093607      0.002708
O       5.89157     15.30007     11.48324        -0.103035      0.192799      0.012648
O       5.79452      7.62518      2.74303         0.177687      0.105733     -0.032358
O       6.00840      7.52540     15.89441        -0.291856      1.593769      0.188002
O       5.82522      7.71827      7.19363         0.441750     -0.361389     -0.414047
O       5.90162      7.65739     11.32500         0.478472     -0.486378      0.787694
O       5.66856     11.50204      2.68979         0.388433     -0.211083     -0.038371
O       6.01407     11.47942     15.78120        -0.820579     -0.296964      0.400339
O       5.98121     11.50848      7.05686        -0.315968     -0.034133      0.029563
O       5.84284     11.46834     11.33826        -0.017835      0.852052      0.831590
O       9.69032      3.81659      2.50236         0.194679     -0.400055      0.918608
O       9.87333      3.79215     15.73596         0.090160      0.242377      0.278582
O       9.50422     15.32278      2.78659         0.971569      0.311933     -0.468008
O       9.83223     15.31280     15.93442        -0.356066     -1.469610     -0.254688
O       9.66545      3.72676      7.13080         0.091491      1.369199      0.057942
O       9.61178     15.34265      7.14921         0.282832      1.136142      0.056183
O       9.83210      3.80061     11.46695        -0.336727     -0.210272      0.242226
O       9.82019     15.34582     11.29966        -0.222315     -0.517495      0.642793
O       9.53047      7.70695      2.63587         0.297166     -0.727930      0.414577
O       9.89409      7.72337     15.85188        -0.249098     -0.997956      0.125353
O       9.83887      7.68959      7.08133        -0.420009     -0.006609     -0.215286
O       9.60141      7.58323     11.39674         0.566618      0.661266      0.017013
O       9.59803     11.40995      3.01053         0.658136      1.965305     -0.758228
O       9.84155     11.48713     15.88293        -0.469853     -0.145013     -0.419473
O       9.68787     11.58124      7.02393         0.520416     -0.995762     -0.108911
O       9.68303     11.52993     11.50889        -0.191943     -0.203738     -0.256079
