  # total energy = -7882.55794875 
CRSYTAL
PRIMVEC
    15.3600000000000000    0.2300000000000000    0.0000000000000000
     0.0000000000000000   15.3600000000000000    0.0000000000000000
     0.0000000000000000    0.0000000000000000    17.440000000000000
PRESSURE
1.6414 1.56432 -1.43984 -0.052259 -0.067102 -1.58523
PRIMCOORD
320 1
Pb       3.81041      3.89835      4.40614        -0.005559      0.330858     -0.095227
Pb       3.85597      3.68107      0.05252        -0.201497      0.672829      0.345329
Pb       3.95638     15.39877      4.25413        -0.370065     -0.190766      0.569788
Pb       3.95055     15.36175      0.07472        -0.799761      0.457838      0.303578
Pb      15.27129      4.13235      4.29660         0.484742     -0.127553      0.371639
Pb      15.35859      3.99012     17.42699         0.090600      0.261279      0.576246
Pb       0.04725     15.15840      4.33851        -0.117133      1.012483      0.172922
Pb       0.03179      0.03157     17.36966        -0.032821     -0.014639      0.692388
Pb       3.83278      3.74320      8.64362        -0.311876      0.550363      0.160382
Pb       3.91626      0.06349      8.56111        -0.767423     -0.032007      0.508751
Pb      15.29135      3.85196      8.57913         0.401030      0.393089      0.402633
Pb      15.34047     15.52152      8.64847         0.321408      0.145378      0.258421
Pb       3.64313      3.74496     12.99071         0.497270     -0.045248      0.532803
Pb       3.82367     15.27790     12.99296        -0.089905      0.941722      0.703713
Pb      15.32560      4.05573     12.97766        -0.262100     -0.293315      0.328929
Pb       0.00578     15.33551     13.05277        -0.314439     -0.081823     -0.263773
Pb       3.72746      7.75439      4.37868         0.589969     -0.055464      0.424930
Pb       3.83585      7.63995     17.36739        -0.223224      0.286667      0.038771
Pb       0.06757      7.88983      4.41480        -0.705993     -0.769562     -0.018850
Pb      15.28725      8.00630     17.41646         0.310709     -0.627862      0.364346
Pb       3.86854      7.72056      8.78878         0.299564     -0.091334     -0.346422
Pb       0.13373      7.55713      8.83977        -0.552884     -0.293708     -0.598151
Pb       3.65099      7.64843     13.13698         0.742137      0.131746      0.169703
Pb      15.33452      7.89623     13.05492         0.218868     -0.204750      0.043093
Pb       3.66466     11.65915      4.26106         1.288629     -0.457043      0.794443
Pb       3.69671     11.58516     17.38947         0.400855     -0.283259      0.222598
Pb      15.26206     11.82062      4.32611         0.364664     -0.485086      0.332774
Pb      15.17279     11.69705     17.40290         0.165272      0.623668      0.459122
Pb       4.03195     11.60109      8.69882        -0.546812     -0.399835      0.132780
Pb       0.12410     11.47958      8.83789        -0.101774      0.226081     -0.111960
Pb       3.72788     11.52914     13.05397         0.524393     -0.105441      0.382690
Pb      15.35678     11.70567     13.13567        -0.481979      0.005762     -0.487906
Pb       7.74733      4.00856      4.28062        -0.196041     -0.168877      0.435889
Pb       7.75775      3.79348     17.33992        -0.669469      0.531217      1.095372
Pb       7.80914     15.40140      4.24035        -0.539461      0.165113      1.000786
Pb       7.65729      0.12406     17.31452         0.156378      0.343828      1.155689
Pb       7.56629      3.92128      8.62876         0.177436      0.194292      0.458415
Pb       7.55786     15.42447      8.54164         0.292320      0.100226      0.399513
Pb       7.53354      3.95814     13.02381         0.473192      0.463555      0.174265
Pb       7.62570      0.25837     12.96180         0.496587     -0.415378      0.619341
Pb       7.73475      7.79026      4.29964        -0.318585     -0.170907      0.154474
Pb       7.51724      7.79782     17.25999         0.148796      0.284379      0.848607
Pb       7.63511      7.62560      8.71152        -0.018066      0.494356      0.589552
Pb       7.67989      7.85542     13.07915         0.184149     -0.054794     -0.433364
Pb       7.60338     11.50746      4.17092        -0.022181      0.328617      0.493322
Pb       7.69434     11.57560     17.26025         0.298453     -0.342229      0.963385
Pb       7.73514     11.52189      8.65949        -0.222294      0.147813      0.013580
Pb       7.67709     11.77397     13.01246        -0.242507     -0.979403      0.742180
Pb      11.48233      3.99426      4.35250        -0.199314      0.116211      0.233680
Pb      11.64082      4.14796     17.43361        -0.195078     -0.488427      0.357618
Pb      11.57518     15.40194      4.19852        -0.493669      0.840960      2.215487
Pb      11.60002      0.27723     17.42440        -0.253583     -0.199983      0.266068
Pb      11.51479      4.06465      8.62272        -0.388753     -0.432483      0.416895
Pb      11.38633     15.52040      8.66288         0.012564      0.079863     -0.034713
Pb      11.55603      4.23920     13.02972        -0.004640     -1.195038      0.834045
Pb      11.42215      0.20607     12.95837         0.033058     -0.070991      0.347455
Pb      11.49249      7.88495      4.40434         0.270455     -0.245707     -0.069840
Pb      11.45156      7.92344     17.35758         0.303368     -0.067279      0.592509
Pb      11.49354      7.86674      8.76638         0.045252     -0.135872     -0.434763
Pb      11.60111      7.96056     12.95673        -0.490550     -0.186601      0.291526
Pb      11.44611     11.52912      4.41333        -0.273222      0.039311      0.087926
Pb      11.42389     11.77324     17.30437         0.499637     -0.371684      0.605187
Pb      11.62391     11.66707      8.64711        -0.508755     -0.172925      0.184122
Pb      11.38984     11.80555     12.98797         0.870567     -0.548975      0.545220
Ti       1.96660      2.01391      2.57200        -0.892947     -0.690852     -1.904172
Ti       1.90357      1.88980     15.41558         0.202563      1.073632     -1.226613
Ti       1.90786     13.48372      2.30745        -0.097662      0.491037     -0.353466
Ti       1.85570     13.45914     15.41846         0.333137      0.268554     -0.200891
Ti      13.41325      2.04857      2.47393         0.979970      1.200285     -1.010960
Ti      13.37338      2.11811     15.37687         0.082661      0.336149     -0.290172
Ti      13.37296     13.57679      2.35435        -0.103083     -0.115632     -2.256484
Ti      13.40534     13.63511     15.33352         0.118010     -0.077479     -0.313450
Ti       1.87822      1.86330      6.58578        -0.056912     -0.038601     -0.192657
Ti       1.91892     13.35194      6.65737        -0.395937      0.433544     -0.606469
Ti      13.35041      2.02685      6.71437        -0.235772     -0.525096     -1.289731
Ti      13.46039     13.55052      6.78127        -0.530070      1.103161     -0.488599
Ti       1.84638      1.87179     11.03829         0.707214     -0.518966     -1.258988
Ti       1.85930     13.38196     11.13331        -0.120326      0.302559     -1.023178
Ti      13.37070      1.99659     10.98762         0.252903      0.795050      0.054521
Ti      13.42392     13.58423     11.03256         0.218869     -0.415124      0.593760
Ti       1.91497      5.88538      2.36412        -0.905867     -1.351062     -0.511851
Ti       1.94117      5.70604     15.45005        -0.235359      0.228433     -0.479445
Ti      13.40549      5.98069      2.42043         0.209668      0.418679     -0.461826
Ti      13.50017      5.99499     15.42817         0.140387     -0.578406      0.158637
Ti       1.93359      5.67763      6.71300        -0.919954      0.295308      0.394499
Ti      13.42232      5.90860      6.67775         0.260393      0.832674      0.445188
Ti       1.93201      5.70513     11.04975        -0.380783      0.206547     -0.157904
Ti      13.51993      5.92623     10.97840        -1.198050     -0.290407      0.050435
Ti       1.94466      9.63767      2.33184        -0.684198      0.447217     -1.601425
Ti       1.80828      9.65712     15.39367         1.027035     -0.581995     -0.033435
Ti      13.44166      9.84782      2.36678        -1.297178     -1.970230     -1.474556
Ti      13.43903      9.75781     15.28777        -0.657441      0.888524      0.280505
Ti       1.91380      9.54218      6.84971         0.291238      0.582139     -1.148318
Ti      13.49966      9.73331      6.76389        -1.217310     -0.259090     -0.675965
Ti       1.99800      9.54889     11.07516        -0.593997      0.798599     -0.411507
Ti      13.51218      9.76287     11.04314        -0.123644      0.849768      0.326284
Ti       5.81041      2.01015      2.45380        -0.508905      0.464504     -0.896513
Ti       5.66725      2.00328     15.39336         0.442514      0.642521      0.549399
Ti       5.75389     13.53268      2.26298         0.183915     -1.108167     -0.833023
Ti       5.72573     13.52167     15.51354        -0.332637     -0.190632     -1.223607
Ti       5.69832      2.03655      6.57642         0.685506     -0.428359     -0.337988
Ti       5.71954     13.44605      6.63507         0.451770      0.251688     -0.593379
Ti       5.74513      2.06073     11.00226        -1.160434     -0.726117     -0.765788
Ti       5.72196     13.50782     11.14714         0.041890     -0.115255     -0.407063
Ti       5.67864      5.85253      2.28233         0.473277     -0.224399      0.429402
Ti       5.77287      5.80452     15.35716        -0.757011     -0.225547     -0.081147
Ti       5.75789      5.81059      6.59039        -0.581577      0.673918      1.367374
Ti       5.66015      5.79503     11.06208         1.240914      0.438846     -0.882015
Ti       5.73830      9.60570      2.29848        -0.522555      0.634547     -1.669523
Ti       5.65379      9.73330     15.35454         0.623395     -0.937190      0.989951
Ti       5.70980      9.60569      6.67992         0.376456      0.287402      0.428846
Ti       5.74825      9.63237     11.07480         0.594313     -0.108360     -0.120929
Ti       9.60539      2.00877      2.34005         0.228956      1.008262     -1.538895
Ti       9.59826      2.08084     15.33379         0.270153      0.341270      0.793199
Ti       9.57756     13.53983      2.35067         0.351987     -0.929484     -1.507149
Ti       9.58216     13.69062     15.43442         0.121646     -0.703684     -1.674870
Ti       9.49553      2.09162      6.72326         0.454763     -0.867533     -0.750346
Ti       9.55710     13.54858      6.66429         0.044447     -0.351417     -0.552660
Ti       9.62012      2.15558     10.95992        -0.456666     -1.135755     -0.514502
Ti       9.55583     13.56785     11.00375         0.079431      1.118592      0.861582
Ti       9.53566      5.88224      2.29793         0.418063     -0.450975      0.142992
Ti       9.55737      5.84128     15.46080         0.289822      0.508852     -1.244684
Ti       9.56946      5.82962      6.75006        -0.087556      0.679703     -0.675808
Ti       9.64761      5.91353     11.11216        -1.245987      0.280432     -1.228652
Ti       9.61996      9.65483      2.28569         0.224604      0.649721     -1.988578
Ti       9.64590      9.67042     15.41929        -0.999176      0.593876     -0.952989
Ti       9.51979      9.63792      6.84271         0.835519      0.255353     -0.499602
Ti       9.62978      9.79581     11.02240        -0.563913     -1.843952     -0.357092
O       1.90531      1.94593      0.73925         0.269683      0.239812      0.636346
O       1.96986      2.00901     13.57021        -0.463543     -0.448079      1.306077
O       1.85581     13.46547      0.53854         0.153081     -0.113028      0.198413
O       1.93592     13.42741     13.61173        -0.528717      0.202137      1.167479
O      13.35209      2.23308      0.66383         0.149734     -0.668870      1.023335
O      13.32378      2.10458     13.60569         0.407663     -0.197752      0.698207
O      13.28676     13.66090      0.51963         0.197036     -0.252262      1.767465
O      13.48469     13.68161     13.53826        -0.189744     -0.021993      1.460194
O       1.92079      1.91648      4.80560         0.091444     -0.296556      0.779829
O       1.80702     13.36158      4.78226         0.290371     -0.125263      2.023363
O      13.40399      1.92903      4.93527        -0.083546      0.164323      0.507619
O      13.46412     13.57544      4.95815         0.185387     -0.016510      0.720048
O       1.92299      1.85661      9.22317        -0.120246      0.044651      1.107701
O       1.85310     13.32724      9.33248         0.238719      0.080914      1.068559
O      13.44225      2.08336      9.23041        -0.156236      0.145129      0.015973
O      13.45777     13.54268      9.27014        -0.166900     -0.023064      0.080741
O       2.01739      5.81833      0.60158        -0.239585      0.135634      0.342133
O       1.88173      5.77054     13.60742        -0.080553     -0.228395      0.969852
O      13.44069      5.76569      0.64516        -0.241166      0.748302      0.281480
O      13.53344      5.96786     13.66662         0.081223      0.024583      0.307606
O       1.80447      5.80813      4.98080        -0.035037      0.213685     -0.254287
O      13.51743      5.98153      4.92861        -0.171750     -0.240408      0.287783
O       1.96041      5.72102      9.30417        -0.186900      0.263334      0.064537
O      13.35887      5.91081      9.22246         0.134433      0.078997      0.192922
O       1.86947      9.69667      0.47650         0.103832     -0.220905      1.897995
O       1.94824      9.67899     13.58727        -0.506527     -0.384982      1.389699
O      13.26897      9.77428      0.57013         0.648388      0.177926      0.534111
O      13.44244      9.78987     13.51413         0.232038     -0.255690      0.568611
O       1.83383      9.61015      5.01952         0.154810     -0.291985      0.748906
O      13.40429      9.76042      4.93617         0.135662      0.474149      0.950605
O       2.12882      9.62683      9.26427        -0.600411     -0.260469      0.714297
O      13.43759      9.75193      9.29256         0.094829      0.050145     -0.490173
O       5.51663      1.92325      0.65868         0.748983      0.243694      0.996703
O       5.73844      2.09416     13.64955        -0.225340     -0.231162     -0.191614
O       5.68555     13.47874      0.43690         0.231930      0.254713      1.156924
O       5.74261     13.59878     13.67751         0.376321     -0.285155      1.231736
O       5.72263      1.98452      4.80150         0.139517      0.024424      0.647855
O       5.70118     13.50913      4.89221         0.287522     -0.256097     -0.127619
O       5.58384      2.07230      9.18004         0.546179     -0.181005      1.014930
O       5.62526     13.52704      9.39508         0.133977      0.015779     -0.222831
O       5.60331      5.88327      0.53122        -0.098609      0.077274      0.550135
O       5.89369      5.76273     13.56383        -0.519130      0.172041      0.667681
O       5.82708      5.84979      4.87778        -0.091988      0.233703     -0.553464
O       5.71681      5.56587      9.24369        -0.258870      0.832527      1.522591
O       5.62851      9.57796      0.46071         0.161231      0.171805      1.960815
O       5.75303      9.64491     13.63209         0.019093      0.129826     -0.755490
O       5.71762      9.60111      4.94785         0.238151     -0.080257     -0.833784
O       5.70489      9.62004      9.29548        -0.224391      0.409489      0.413743
O       9.68839      2.11233      0.50496        -0.360633     -0.143125      2.138868
O       9.72763      2.05045     13.60035        -0.527119      0.052134     -0.049009
O       9.77670     13.49663      0.55247        -0.577990      0.327973      0.705474
O       9.52956     13.66897     13.57917         0.045676     -0.276561      1.882122
O       9.42571      2.05585      4.96326         0.323047     -0.094438     -0.274669
O       9.48752     13.59980      4.85357         0.244437     -0.367198      0.911120
O       9.64640      2.15612      9.17111        -0.506676     -0.308195      0.737967
O       9.59615     13.63776      9.27248        -0.170130     -0.272168      0.130378
O       9.57207      5.81405      0.55021         0.242151      0.173975     -0.004363
O       9.56586      5.81925     13.63299        -0.077626      0.224290      1.197706
O       9.51933      5.83133      4.97099        -0.165454      0.255872      0.052863
O       9.61269      5.87049      9.28924         0.288073     -0.035548      1.310665
O       9.68537      9.67310      0.43677        -0.003600      0.085697      1.474528
O       9.56983      9.60048     13.61834         0.327364      0.306240      0.951011
O       9.60669      9.60773      5.06412        -0.270724      0.038753     -0.251896
O       9.44695      9.72833      9.24029         0.781102      0.022157      0.535824
O       3.86260      1.96135      2.92379         0.510245      0.160965     -0.423986
O       3.81285      1.94922     15.90769         0.111452      0.009048     -0.477442
O       3.88091     13.44027      2.64090        -0.190253      0.348837      0.093553
O       3.80623     13.40043     15.74978         0.163172      0.251944      0.161058
O       0.01368      1.79937      2.88816        -0.729687      0.151109     -0.381486
O       0.02440      1.91815     15.84328        -0.472349     -0.308479     -0.360471
O      15.32034     13.58801      2.76086        -0.014430      0.069909     -0.494002
O      15.28062     13.69620     15.87039         0.758757      0.297301     -0.548613
O       3.82002      1.91195      7.01228        -0.084551      0.221975     -0.202427
O       3.78710     13.44293      6.99848         0.064401     -0.345604      0.216198
O      15.35931      1.98629      7.03748        -0.577929      0.443526     -0.022156
O       0.01615     13.39279      7.27511        -0.027996     -0.082475     -1.069593
O       3.77530      1.84674     11.44873         0.588092      0.417911     -0.127888
O       3.78625     13.47160     11.60564         0.525687     -0.111264     -0.800383
O      15.31534      2.06891     11.41487        -0.134898      0.225673      0.181869
O      15.32360     13.53979     11.55526         0.197543      0.700983     -0.353370
O       3.72168      5.87309      2.90017         1.605925      0.024275     -0.393758
O       3.84204      5.78008     15.76370        -0.669440      0.288629     -0.295287
O      15.33663      5.94444      2.74281         0.059505      0.405440     -0.010310
O       0.02386      5.72954     15.99875        -0.681088     -0.198644     -0.611726
O       3.76412      5.65605      6.96826         1.156969      0.698346      0.145283
O      15.35141      5.89968      7.33789        -0.560717      0.283726     -0.830141
O       3.78187      5.83315     11.41935         0.172892     -0.014085      0.241779
O      15.33386      5.98334     11.44464         0.880987     -0.222502     -0.144706
O       3.77367      9.54820      2.79050         0.373043      0.306575     -0.342810
O       3.77124      9.64537     15.68727        -0.995056      0.483459      0.184388
O      15.28489      9.80577      2.71499         1.648590      0.423412      0.007360
O      15.28224     10.04276     15.79277         0.663240     -1.447890     -0.287350
O       3.86302      9.62520      7.11798        -0.838928     -0.051837      0.049190
O      15.29671      9.82272      7.17844         1.062311     -0.371006      0.128016
O       3.82132      9.56687     11.56159         0.162740      0.401808     -0.198696
O       0.09360      9.66771     11.44484        -0.775578     -0.552429     -0.139086
O       7.73763      1.99442      2.77609        -0.774549      0.376370     -0.567071
O       7.59222      2.03262     15.83064         0.515242     -0.304734     -0.436998
O       7.68953     13.43135      2.73460        -0.452549      0.198828     -0.406512
O       7.69456     13.56856     15.92938        -0.062545      0.011706     -0.595517
O       7.58417      2.01583      7.03341        -0.388221     -0.087093      0.412968
O       7.57326     13.53534      7.16218         0.767076     -0.079811     -0.289924
O       7.58304      2.20419     11.37965         0.811682     -0.474115     -0.216452
O       7.67070     13.45633     11.52216        -0.085081      0.519761     -0.770028
O       7.66175      5.81780      2.61214        -0.297536      0.283817      0.304524
O       7.58950      5.81869     15.88418         0.717304      0.432714     -0.375735
O       7.65477      5.89526      7.14592        -0.612595     -0.396941     -0.318469
O       7.68239      5.86354     11.41043         0.050037     -0.311204      0.031919
O       7.62768      9.63714      2.67949         0.409972      0.263493     -0.043823
O       7.64257      9.67606     15.76096         0.315347     -0.025935     -0.032580
O       7.65118      9.64925      7.17042        -0.374879     -0.236434     -0.122143
O       7.71257      9.63600     11.41756        -0.455428      0.425082      0.210006
O      11.51109      2.05906      2.88792        -0.292153     -0.336380     -0.623052
O      11.47467      2.23679     15.85914         0.535773     -0.778287     -0.547457
O      11.45900     13.65369      2.85862         0.373565     -1.369910     -0.862591
O      11.49479     13.66653     15.72068        -0.128386      0.154831     -0.156384
O      11.37169      2.06417      7.07017         1.463252     -0.130391      0.048970
O      11.46908     13.50245      7.10139         0.129849      0.429313     -0.185026
O      11.46942      1.98105     11.29863         0.695479     -0.038959      0.139894
O      11.53535     13.62175     11.58149        -1.125874     -0.076758     -1.099407
O      11.48136      5.84621      2.84344        -0.028842      0.291494     -0.348109
O      11.49080      5.99844     15.80151         0.307413     -0.440334     -0.259704
O      11.43994      5.88498      7.03988         1.615961     -0.039624      0.168233
O      11.55480      5.91760     11.55233         0.154480      0.725733     -0.816412
O      11.46853      9.72470      2.86147        -0.214176      0.035806     -0.103454
O      11.58543      9.74113     15.75929        -0.798339     -0.318572     -0.362532
O      11.45243      9.76758      7.14261         1.045654     -0.038112      0.382108
O      11.60632      9.76751     11.41464        -1.060111     -0.182722     -0.115992
O       1.96367      3.89914      2.85556        -0.216844      0.104748     -0.166391
O       1.94582      3.81478     15.84995        -0.181848      0.237351     -0.166764
O       2.06891     15.32897      2.70694        -0.726939     -0.233523      0.359460
O       2.01623      0.08513     15.87188        -0.688422     -1.516443     -0.339816
O      13.44705      4.02810      2.83898        -0.290863     -0.707025      0.072866
O      13.49715      4.03299     15.81973        -0.299527      0.190504     -0.236892
O      13.42177     15.41633      2.76655         0.056059      1.281144     -0.187683
O      13.45575      0.21815     15.92860        -0.418704      0.458515     -0.833153
O       1.89674      3.76081      7.00742        -0.400948     -0.350526      0.095846
O       1.89916     15.30269      7.06093         0.157341     -0.426853     -0.358456
O      13.37133      3.94947      7.03973         0.357947      0.340373     -0.037770
O      13.32293     15.53028      7.26404         0.382520     -0.561951     -0.568408
O       1.89981      3.80026     11.36881        -0.159998      0.344816      0.160989
O       1.88175     15.33369     11.52496        -0.314222     -0.299588     -0.168525
O      13.42012      4.05317     11.50762         0.145289     -0.460708     -0.562699
O      13.41010     15.49076     11.35606         0.338553      0.518219      0.186301
O       1.88574      7.74968      2.87112        -0.348970      0.479888     -0.595100
O       1.67050      7.65503     15.84495         0.968260      1.249152     -0.722061
O      13.35104      7.96225      2.78819         0.257516     -1.594654     -0.095983
O      13.50707      7.91479     15.82817         0.161914     -0.364232     -0.344074
O       1.90619      7.65466      7.28961        -0.008616      0.071973     -0.451221
O      13.40813      7.86142      7.02019        -0.005071     -0.487823      0.419289
O       1.88491      7.68823     11.56863        -0.136147     -0.341748     -0.673668
O      13.55314      7.84862     11.44731        -0.371614     -0.007201     -0.174641
O       1.99593     11.57541      2.78370        -0.863541     -1.184850     -0.837201
O       1.81027     11.60447     15.87962         0.270171     -0.476437     -0.555934
O      13.37406     11.66183      2.67467        -0.216313      1.683947      0.710487
O      13.47984     11.70605     15.76631        -0.916607      0.807263     -0.520113
O       1.86757     11.44569      7.16834         0.194930      0.984343     -0.237713
O      13.45162     11.75299      7.15246         0.030876     -1.225506     -0.086306
O       1.84611     11.49663     11.58962         0.932870      0.093750     -0.557738
O      13.39722     11.67986     11.48851         0.122214      0.254441     -0.191326
O       5.72137      3.96299      2.76475        -0.153576     -0.370009     -0.303984
O       5.74153      3.90861     15.94288        -0.269823     -0.328945     -0.731116
O       5.82955     15.43787      2.72319        -0.304884     -0.624415     -0.174006
O       5.73922      0.10732     16.00631        -0.148880     -0.650961     -1.207994
O       5.73559      3.95428      7.02471         0.021250     -1.012048     -0.318168
O       5.69895     15.42086      7.03484         0.086777      0.064590     -0.062285
O       5.62127      3.91271     11.50494         0.026150     -0.061288     -0.224342
O       5.89967      0.12853     11.48487        -0.965482     -0.286784     -0.530446
O       5.82388      7.74337      2.74951        -0.700180     -0.103998     -0.136322
O       5.58661      7.75764     15.82556         0.938515     -0.443026     -0.729969
O       5.69975      7.74826      7.22038        -0.017461     -1.106851     -0.589281
O       5.70474      7.75941     11.39824         0.041613     -0.889881      0.084270
O       5.68921     11.59917      2.66892         0.315810     -0.668245      0.050577
O       5.84511     11.56003     15.91146        -0.851026      1.064870     -0.877916
O       5.80396     11.54285      7.06538        -0.360835      0.446203      0.212047
O       5.71045     11.58256     11.47908         0.023116      0.111645      0.025100
O       9.54585      3.93661      2.83764         0.594825     -0.064451     -0.580160
O       9.46045      3.97509     15.84541         0.582183      0.107494     -0.671271
O       9.47740     15.43509      2.61723         0.705304      0.503574      0.067248
O       9.51369      0.23178     15.89519         0.633188     -0.828876     -0.695014
O       9.55221      3.96080      7.07955        -0.315553      0.169048      0.194690
O       9.53511     15.44062      7.09909        -0.232601     -0.010312      0.028524
O       9.70566      3.91209     11.42740        -0.183102      1.580360      0.165720
O       9.47137      0.14675     11.50852         0.246677     -0.041325     -0.837864
O       9.58008      7.80961      2.74975         0.064357     -0.657579     -0.054395
O       9.48996      7.81454     15.94050         0.586349     -0.609560     -0.883314
O       9.61436      7.71751      7.30091        -0.293112      0.736457     -0.448270
O       9.68495      7.85663     11.51039        -0.043987     -0.712581     -0.426709
O       9.62106     11.52050      2.66340        -0.241842      0.960375      0.498895
O       9.63966     11.65446     15.75448        -0.369617      0.269399     -0.287140
O       9.56152     11.62974      7.08400        -0.425984      0.270323      0.180220
O       9.59795     11.61328     11.37946         0.136392      1.280418      0.317817
