  # total energy = -7880.89354752 
CRSYTAL
PRIMVEC
    15.3600000000000000    0.2300000000000000    0.0000000000000000
     0.0000000000000000   15.3600000000000000    0.0000000000000000
     0.0000000000000000    0.0000000000000000    17.440000000000000
PRESSURE
0.1146 0.159516 -2.5948 0.133517 0.259266 -1.5777
PRIMCOORD
320 1
Pb       3.84222      3.96735      4.15921         0.298031     -0.403322      0.279424
Pb       3.76620      3.93494      0.01927         0.016781     -0.279230      0.013061
Pb       3.80618     15.29569      4.34224         0.771347     -0.018670     -0.428427
Pb       3.80610     15.40281      0.03886        -0.064213     -0.479241      0.207210
Pb       0.17456      3.93969      4.40693        -0.915118     -0.269963     -1.003938
Pb       0.06200      3.80378      0.11651        -0.161557      0.033590     -0.248557
Pb      15.22964      0.29701      4.37380        -0.328130     -0.343733     -0.281158
Pb      15.27182     15.58327      0.03611         0.260374     -0.280918      0.028657
Pb       3.80461      3.79476      8.51449         0.342536     -0.024171      0.062685
Pb       3.77154     15.32282      8.61531         0.374113      0.272108      0.050656
Pb       0.05534      3.88141      8.63095        -0.011185     -0.805444      0.091078
Pb       0.02949     15.17787      8.62663        -0.218431      0.616819      0.172547
Pb       3.94654      3.84147     13.11738        -0.121112      0.121901      0.011185
Pb       3.70025      0.17068     13.16168         0.284288     -0.094540     -0.346348
Pb      15.31687      4.00143     13.00330         0.313235     -0.178860     -0.182149
Pb      15.26659      0.26688     13.00320         0.392747      0.132187     -0.125276
Pb       3.88534      7.75033      4.29989        -0.346284      0.274097     -0.011481
Pb       3.76402      7.69881     17.40847        -0.594777      0.498073     -0.102423
Pb      15.18111      7.82445      4.38425         0.611647      0.279615     -0.483387
Pb      15.31526      7.88825     17.37175        -0.026997      0.267656      0.063647
Pb       3.86255      7.61533      8.68480         0.057221      0.041863     -0.666755
Pb      15.29372      7.83679      8.67893         0.208533      0.691613      0.085557
Pb       3.78680      7.56819     13.00047         0.118452     -0.119207      0.310318
Pb       0.00296      7.60319     13.03097        -0.196049      0.320385     -0.455765
Pb       3.88991     11.39406      4.25710         0.244625      0.228385      0.078217
Pb       3.86573     11.54078     17.35813        -0.560356      0.242784      0.371372
Pb       0.00143     11.39691      4.33424        -0.639418      0.116885     -0.562769
Pb       0.03829     11.66151     17.39409         0.128997     -0.502112     -0.069314
Pb       3.80960     11.42427      8.71444        -0.142224      0.424199     -0.349228
Pb       0.01036     11.48188      8.56569         0.023929     -0.026752      0.666358
Pb       3.79035     11.53025     13.04926         0.062234      0.215867     -0.219625
Pb      15.30029     11.75721     12.94503         0.287163     -0.262729     -0.020759
Pb       7.63676      3.91821      4.29757        -0.084396      0.042190     -0.326630
Pb       7.61902      4.05423     17.39196         0.460101     -0.183223      0.230956
Pb       7.68572     15.35314      4.30360        -0.272547     -0.074781     -0.158317
Pb       7.79110      0.22205      0.04229        -0.065947     -0.665476      0.077061
Pb       7.58538      3.82673      8.64576        -0.243097      0.221571     -0.476690
Pb       7.72886     15.33246      8.75439        -0.486402     -0.063237     -0.841368
Pb       7.66229      3.93508     12.99241        -0.381424     -0.216436      0.534707
Pb       7.66846     15.35983     13.15347        -0.172080      0.692788     -0.984535
Pb       7.67297      7.72824      4.33367         0.058390      0.648263     -0.113050
Pb       7.66445      7.75297      0.00624         0.280231      0.106325     -0.764477
Pb       7.69143      7.85372      8.80083         0.046527     -0.602008     -0.992318
Pb       7.67373      7.83374     13.05637         0.075982     -0.294802      0.525624
Pb       7.69860     11.65596      4.43498         0.092988     -0.232261     -0.895835
Pb       7.54136     11.60249     17.37478         0.615615      0.574321     -0.440976
Pb       7.60071     11.59154      8.84881        -0.072052      0.490100     -0.876689
Pb       7.65166     11.74801     13.22540        -0.056437     -0.345405     -0.918265
Pb      11.43558      4.13455      4.45952         0.616793     -0.477021     -1.016554
Pb      11.51350      4.03645      0.06128        -0.215937      0.197501     -0.594043
Pb      11.54943      0.20854      4.43203        -0.050212     -0.039544     -0.608965
Pb      11.45948      0.24944     17.41428        -0.140441     -0.314638      0.222426
Pb      11.42960      3.75844      8.71436         0.113884      0.510931     -0.525875
Pb      11.50177     15.50663      8.66714         0.075647     -0.167229     -0.225403
Pb      11.46036      3.98976     13.05255         0.369803     -0.445848      0.156678
Pb      11.56889      0.28369     12.98523        -0.105091      0.262525     -0.168187
Pb      11.45173      7.82803      4.33491        -0.082734      0.032904     -0.402223
Pb      11.48769      7.83502     17.37258        -0.144057     -0.398506     -0.546200
Pb      11.58551      7.77852      8.73645        -0.338401      0.130966     -0.459648
Pb      11.44853      7.83977     13.08034         0.297821      0.169702      0.300195
Pb      11.54834     11.57022      4.23553        -0.012141      0.195063      0.223483
Pb      11.48493     11.74358     17.30788        -0.349461      0.082710     -0.319809
Pb      11.42410     11.68580      8.77791         0.345065     -0.033954     -0.567893
Pb      11.55576     11.78989     12.98285        -0.053050     -0.224585     -0.043029
Ti       1.93200      1.92422      2.32178         0.107375      0.284455     -0.866476
Ti       1.93574      1.85872     15.54356        -0.325493      0.232147     -1.198778
Ti       1.89416     13.42636      2.41811         0.756825      0.058664     -1.304676
Ti       1.87669     13.40842     15.34043        -0.018002      0.183111      1.154919
Ti      13.41246      2.14323      2.34646        -0.640080      0.347415      1.629107
Ti      13.40819      2.12848     15.43779         0.069413      1.082348     -1.031924
Ti      13.40300     13.63283      2.34646         0.445289      0.360411      0.748338
Ti      13.37418     13.73459     15.23320         0.274853     -0.350681      0.441253
Ti       1.85140      1.90505      6.41385         0.583595     -0.235983      0.893529
Ti       1.92627     13.45202      6.54296         0.188865     -0.050288      1.119762
Ti      13.35252      2.11290      6.62958         0.272398     -0.602982     -1.555078
Ti      13.41138     13.63129      6.71925         0.462388      0.319427     -1.326762
Ti       2.00038      1.87219     10.96340        -1.039284      0.688265      0.016215
Ti       1.93339     13.45273     10.92963        -0.679983     -0.811163     -0.800821
Ti      13.46237      2.16126     10.92780         0.039391     -0.447317      1.401347
Ti      13.47255     13.68610     11.00754         0.647093      0.336743     -1.675439
Ti       1.93196      5.82015      2.33644        -0.384941      0.818745     -0.221502
Ti       1.80369      5.71035     15.39896         0.611601      0.038423     -0.167861
Ti      13.44019      5.93850      2.33774        -0.545639     -0.717506      0.407447
Ti      13.43653      5.93076     15.27881        -1.432569     -0.056178      1.861592
Ti       1.88339      5.72047      6.57650         1.469255      1.478594     -1.264562
Ti      13.43877      5.93017      6.68703        -1.223216     -0.297387     -1.171301
Ti       1.92072      5.71131     10.96612        -0.138458     -0.704130      0.234129
Ti      13.32332      5.96061     11.02158         1.048051     -0.988448     -1.149670
Ti       1.93838      9.61737      2.33296        -0.120811     -1.286777     -1.754631
Ti       1.81109      9.57298     15.36137         0.729687      0.579609      1.247046
Ti      13.40597      9.69552      2.14364         0.232488      1.140271      0.790522
Ti      13.36789      9.86728     15.32196         1.181576     -0.585015     -0.476266
Ti       1.87205      9.55871      6.71308         0.885404     -0.735199     -0.938660
Ti      13.41242      9.75836      6.69230        -0.503459      0.584377      0.885977
Ti       1.90705      9.58430     11.07238        -1.179079      0.163535     -1.461418
Ti      13.38421      9.73470     11.00190         1.086712      0.668279     -1.290955
Ti       5.74259      1.98880      2.30472         0.215706     -0.552246      0.559816
Ti       5.78944      1.99842     15.62137        -0.274381      0.673100     -1.687247
Ti       5.73889     13.39721      2.27350         0.466394      1.009775     -0.130785
Ti       5.64565     13.60308     15.32780         0.389741     -0.929361      1.203336
Ti       5.66759      1.91547      6.52200         0.434239     -0.002997      0.548739
Ti       5.73558     13.48367      6.67106         0.146693      0.472663      0.771596
Ti       5.70403      1.95657     10.97327         1.645256      0.245758     -0.494226
Ti       5.71007     13.53859     11.02161        -0.043421      0.596355     -1.588466
Ti       5.80584      5.89071      2.22251        -0.258134     -0.454235      0.170957
Ti       5.66099      5.92491     15.43270         0.724727     -0.990155     -0.358574
Ti       5.76965      5.79982      6.55644         0.706054      0.154052      0.698487
Ti       5.81868      5.82945     11.01099        -0.717279     -0.446761      0.831916
Ti       5.80795      9.66749      2.13946         0.018890     -0.342710      1.957744
Ti       5.69326      9.70267     15.32969         0.169270      0.656920      0.035305
Ti       5.74362      9.65908      6.69500        -0.263561     -0.813963     -1.207523
Ti       5.71849      9.65023     11.14365         0.372917      0.247840      0.622808
Ti       9.56916      2.08794      2.40987         0.615798     -0.299964      0.145570
Ti       9.59158      2.11549     15.38807         0.417772     -0.342245      0.923615
Ti       9.59011     13.51033      2.28937         0.184743      0.923749      0.558986
Ti       9.52783     13.61634     15.26603         0.289814      0.400566     -0.179538
Ti       9.50472      1.98651      6.55357         0.101954     -0.190472      0.272954
Ti       9.67191     13.50340      6.57211        -1.022707      0.848848      0.200397
Ti       9.51216      2.06363     10.92774        -0.002259     -0.495301      0.950080
Ti       9.66391     13.63995     11.07211        -0.782593      0.068590     -0.007749
Ti       9.52322      5.93039      2.29829         1.701986      0.123008     -0.957820
Ti       9.51331      5.91531     15.26866         0.543959     -0.297689      3.083210
Ti       9.61714      5.85483      6.71815        -0.885142      0.436736     -0.542716
Ti       9.59947      5.87135     11.05252        -0.696908      0.533748      0.562288
Ti       9.57603      9.74806      2.20787        -0.342401      0.171122     -0.107461
Ti       9.55328      9.76998     15.29885        -0.017538      0.076006      0.329573
Ti       9.58408      9.71039      6.63060         0.144692      0.353513      0.256098
Ti       9.58944      9.82879     11.08677        -0.449010     -0.014690      1.022884
O       2.03383      2.05441      0.44600        -0.483379     -0.550500      1.500621
O       1.96772      1.82313     13.61668        -0.040480      0.081390      2.032312
O       2.01760     13.32562      0.60262        -0.841857      0.289843      1.263920
O       1.89536     13.45732     13.59874         0.210237      0.103588     -0.325838
O      13.26019      2.16911      0.60499         0.351608     -0.246160     -0.821691
O      13.43248      2.02829     13.60003         0.007993      0.431715      1.227325
O      13.53003     13.87800      0.60498        -0.614004     -0.832281     -0.118477
O      13.57690     13.63438     13.43305        -0.673165      0.379729      1.210220
O       2.08408      2.06080      4.61519        -0.730763     -0.537418      1.289783
O       1.97678     13.51739      4.79442        -0.175405     -0.435709     -0.359549
O      13.33400      2.00824      4.80517         0.307460      0.073093      1.465634
O      13.54993     13.64228      4.90168        -0.142321     -0.245655      0.899779
O       1.99264      2.05471      9.18315        -0.295949     -0.030329      1.210282
O       1.79503     13.36678      9.12334         0.256082      0.284569      0.419546
O      13.40965      2.26153      9.18656         0.128903     -0.131400     -0.540577
O      13.48540     13.85435      9.14634         0.065619     -0.619530      1.107746
O       1.81734      5.86689      0.55162         0.081243     -0.214362     -0.235098
O       2.00125      5.65427     13.63328        -0.692539      0.465767      0.410742
O      13.52356      5.93021      0.58669        -0.299470      0.063090     -0.137854
O      13.30293      5.94408     13.55151         0.351437      0.050770     -1.134135
O       1.90644      5.76605      4.73289        -0.089313     -0.172872      1.284245
O      13.42562      6.05451      4.86213         0.028477     -0.086432      1.186499
O       1.83678      5.60465      9.16260         0.225934      0.188248      0.433389
O      13.28179      5.91761      9.16618         0.536165     -0.127029      0.841108
O       1.96548      9.61613      0.52573        -0.025826     -0.128864      0.556676
O       1.70660      9.69219     13.62827         0.564740     -0.447929     -1.083082
O      13.36658      9.76131      0.39026         0.098384      0.047504     -0.143043
O      13.45843      9.89252     13.47500        -0.382163     -0.349139      1.100402
O       2.03225      9.40364      4.93002        -0.251897      0.925088     -0.015870
O      13.29374      9.82481      4.94519         0.747248     -0.265871     -0.161324
O       1.82911      9.50989      9.22949         0.400190      0.081594      1.327472
O      13.60692      9.61607      9.16278        -0.527584      0.440365      1.672922
O       5.89071      1.91002      0.55318        -0.556768      0.027471     -0.685362
O       5.72106      2.03641     13.78796         0.078607     -0.115046      0.973828
O       5.83768     13.36010      0.49597        -0.397413      0.450552      0.587962
O       5.59824     13.55853     13.54240         0.306570      0.014379      0.032793
O       5.50570      2.00901      4.76206         0.697512      0.116676      0.092103
O       5.71861     13.43179      4.92044         0.034571     -0.325220     -0.439133
O       5.86543      2.01470      9.20684        -0.607521     -0.045777      0.339293
O       5.69646     13.69066      9.14326         0.457091     -0.594777      1.919459
O       5.95664      6.00324      0.44686        -0.572507     -0.136880      0.156228
O       5.61729      5.67028     13.68843         0.006587      0.539961     -0.058489
O       5.87917      5.79011      4.76859        -0.156541      0.135061      0.426361
O       5.87371      5.81627      9.27615        -0.119364      0.292476     -0.238175
O       5.88519      9.78080      0.40492        -0.244909     -0.381273     -0.832763
O       5.63996      9.88480     13.55173         0.161495     -0.435110      0.221432
O       5.62102      9.53590      4.86540         0.319373      0.570199      1.645480
O       5.78349      9.54215      9.37687         0.068806      0.399105      0.137188
O       9.67589      2.11304      0.62288        -0.102266     -0.766523      0.528827
O       9.60825      2.09147     13.63712        -0.055626     -0.066410     -0.078739
O       9.62097     13.68409      0.51822         0.121204     -0.464763      0.427928
O       9.58073     13.64121     13.39274        -0.251248     -0.001807      1.571989
O       9.62750      1.99839      4.76791        -0.380823      0.389935      0.851173
O       9.61134     13.51072      4.79796        -0.182164     -0.382498      1.175630
O       9.53501      2.03076      9.14505         0.046922      0.149725      0.675187
O       9.65237     13.64036      9.28363        -0.253248     -0.238733     -0.100467
O       9.47333      5.99509      0.47556         0.152043      0.098436      1.199708
O       9.52393      5.75618     13.57854         0.496395      0.161228     -1.472812
O       9.55641      5.99366      4.87621         0.253918     -0.381280      1.445653
O       9.56693      6.03029      9.30287         0.116625     -0.442228      0.302110
O       9.47913      9.78735      0.39465         0.657283     -0.226569      0.846760
O       9.75250      9.91479     13.51639        -0.178612     -0.161438      0.909191
O       9.64828      9.75535      4.85673        -0.082681     -0.162755      0.861037
O       9.25779      9.90131      9.34771         0.764350     -0.352863     -0.027570
O       3.85917      2.16201      2.58756        -0.134202     -0.330892     -0.271557
O       3.81837      1.93349     15.93677         0.045690      0.051466     -0.229101
O       3.90442     13.37262      2.77219        -0.567548      0.420749     -0.071293
O       3.78314     13.44554     15.95039         0.150304      0.429352     -1.244134
O      15.31346      2.17658      2.59197         1.284607     -0.403226      0.159851
O       0.01333      1.91601     16.01489        -0.477408      0.054774     -0.800975
O       0.03929     13.63300      2.75491         0.276207     -1.456855     -0.096092
O      15.23951     13.75673     15.91709         0.198963     -0.320690     -0.867703
O       3.83859      1.88111      7.07786        -0.786411      0.407402     -0.479657
O       3.78616     13.61879      7.09872        -0.454202     -1.063770     -0.602202
O      15.30838      2.12983      6.89290         1.026614      0.700811     -0.197621
O      15.35461     13.80834      6.98456         0.488253     -0.940140     -0.062662
O       3.89507      1.98199     11.51701        -1.194624      0.049328     -0.391110
O       3.78703     13.47833     11.20182         0.973506     -0.455897      0.650236
O       0.02364      1.91431     11.47361         0.417988     -0.278799     -0.594096
O       0.05962     13.60775     11.37452        -0.849882     -0.664191     -0.005361
O       3.89746      5.71377      2.49793         0.316888      0.465727      0.033561
O       3.78031      5.91969     15.76030        -0.111612     -0.236822      0.594035
O      15.33523      6.01048      2.78756         0.165391      0.298420      0.028319
O      15.26716      5.73365     15.74648         0.989773      0.768805     -0.213293
O       3.88772      5.78626      6.93079        -0.394740      0.129480      0.246945
O       0.02859      5.60031      6.88074        -0.690662     -0.002196      0.506617
O       3.82496      5.86961     11.38141        -0.193043     -0.422066     -0.306788
O      15.24319      5.97632     11.32548         0.633086      0.170501      0.321726
O       3.89311      9.54538      2.65305         0.703718      0.078646      0.012701
O       3.81235      9.67233     15.81876         0.085068     -0.154581     -0.500392
O       0.06051      9.48058      2.55229        -1.003687      0.266175      0.702444
O       0.03956      9.69491     15.80103        -1.747300     -0.337855      0.143106
O       3.85868      9.49177      7.22874        -0.332358      0.633141      0.013667
O       0.01895      9.46002      7.10468        -0.315303      0.719090     -0.443940
O       3.79114      9.61016     11.50083         0.030947      0.120773     -0.330142
O      15.32168      9.76497     11.46489        -0.187980     -0.318945     -0.082358
O       7.65308      2.10980      2.71982         0.549434     -0.939115      0.339935
O       7.70620      2.02024     15.98938        -0.273377      0.294886     -0.825660
O       7.70472     13.45070      2.76863        -0.721912     -0.133780     -0.051237
O       7.68000     13.58741     15.71333        -0.603702      0.146119     -0.698439
O       7.61572      2.05966      6.91000         0.637201     -0.163956     -0.092933
O       7.60423     13.57222      6.98191         1.448020     -0.566644      0.275192
O       7.62138      2.04266     11.35057         0.711149      0.399477      0.267291
O       7.66094     13.45483     11.38109        -0.334313      0.419090      0.190403
O       7.73807      5.96452      2.71207        -0.719471     -0.447709      0.140086
O       7.61597      5.83859     15.72164         0.537657      0.094014     -0.024564
O       7.71849      5.84268      7.10381         0.062448      0.041505     -0.293901
O       7.65802      5.95854     11.60860         0.791769     -0.398859     -0.854206
O       7.70263      9.67918      2.71388        -0.144284      0.287945     -0.258374
O       7.68996      9.80107     15.68855        -0.205514      0.097464     -0.583771
O       7.63043      9.77967      6.97320         0.555312      0.177008      0.302187
O       7.75725      9.69527     11.67755        -1.187340      0.554321     -0.752467
O      11.52077      2.05011      2.88448        -0.599612      0.042635     -0.658736
O      11.55886      1.98766     15.94701        -1.058652      0.928920     -0.838053
O      11.58338     13.49720      2.79464        -0.535947      0.327020     -0.800355
O      11.43961     13.61579     15.63884         1.185920      0.263186      0.028718
O      11.42585      2.01731      7.06778         0.235996      0.219118      0.041540
O      11.53381     13.63450      7.07518        -0.289785     -0.227927      0.012822
O      11.51496      2.02434     11.38574        -0.212851      0.484320     -0.381005
O      11.56373     13.76875     11.33765        -0.026377     -0.202179      0.267172
O      11.48429      5.89855      2.75035         0.151741      0.257810     -0.084071
O      11.42968      6.02467     15.83060         0.547174     -0.180469     -0.399063
O      11.52355      6.07846      7.05690        -0.293188     -0.334481     -0.150735
O      11.46998      5.88779     11.48291        -0.113277     -0.221335     -0.107650
O      11.49715      9.74402      2.64160         0.197993      0.356461     -0.334847
O      11.55377      9.68591     15.75519        -0.630838      0.364187     -0.123722
O      11.55501      9.74348      7.20312        -0.539065      0.124039     -0.186146
O      11.50219      9.89926     11.27646         0.425129     -0.523291      0.015011
O       1.88824      3.92192      2.65715        -0.222873     -0.523864      0.044105
O       1.91329      3.84487     15.91937         0.371560      0.094460     -0.451500
O       2.08950      0.05251      2.65477        -0.196602      0.053921     -0.227452
O       1.93314     15.28221     15.88869        -0.152121      1.150104     -0.194782
O      13.45714      4.04470      2.84685        -0.225761      0.145847     -0.375651
O      13.22685      4.06283     15.75540         0.397495     -0.749190     -0.040516
O      13.45598     15.52507      2.84505        -0.355696      0.197204     -0.482087
O      13.34489      0.27541     15.68858         0.608117     -1.818203      0.217856
O       2.05395      3.80615      6.85260        -0.667282     -0.133802      0.228023
O       1.87340      0.03109      6.95637         0.203428      0.489207     -0.451943
O      13.22631      3.98897      6.81988         0.381465      1.166550      0.762306
O      13.37381      0.24923      7.06329         0.139822     -0.609557      0.066177
O       1.83371      3.83876     11.48471         0.508380      0.150104     -0.561349
O       2.02254     15.29473     11.25156        -0.054078      2.344051      0.367788
O      13.46839      3.98654     11.46629        -0.523302      0.604266     -0.251866
O      13.48948      0.23239     11.40362        -0.204092      0.572574      0.033807
O       2.06094      7.68707      2.72727        -0.333215     -0.430509     -0.069084
O       1.85977      7.68527     15.82928        -0.404228     -0.444581     -0.458774
O      13.37235      7.90331      2.64385         0.257881     -0.694350      0.314947
O      13.58378      7.82066     15.69544        -0.327526      0.783400     -0.115972
O       1.91588      7.64494      6.88864        -0.043470     -1.339003      1.000374
O      13.49905      7.88138      7.04321         0.104849     -1.113028      0.060692
O       1.90451      7.61647     11.45275        -0.400796      0.423475      0.063599
O      13.29367      7.83469     11.26823         0.026542      0.404191      0.626939
O       2.08443     11.46104      2.67709        -1.177120      1.036033      0.722097
O       1.80980     11.57182     15.76939         0.365054     -0.052633     -0.035568
O      13.48533     11.58296      2.78623         0.579294      0.851922     -0.539062
O      13.33572     11.74303     15.66640         0.240631      0.502529      0.092215
O       1.93721     11.47088      6.95998        -0.115477      0.839613     -0.006420
O      13.49431     11.74408      7.13525        -0.111277     -0.425741     -0.269803
O       1.77975     11.52259     11.36804         0.611928     -0.594469      0.041855
O      13.41439     11.79741     11.20367         0.328740     -0.699573      0.317177
O       5.92270      3.92702      2.52884        -0.268456      0.877837      0.392686
O       5.69375      3.95126     15.94411        -0.087016     -0.214244     -0.074306
O       5.74713     15.36164      2.70481        -0.033031      0.367463     -0.109539
O       5.70601     15.42879     15.82634         0.079319      0.009655      0.058197
O       5.78898      3.89915      7.06769        -0.270072      0.167304     -0.474634
O       5.73131     15.41847      6.98014         0.032432      0.433780     -0.107562
O       5.78528      3.98612     11.45577        -0.227359     -0.840614     -0.137736
O       5.80406      0.12220     11.39416        -0.209801     -0.851907      0.249833
O       5.92060      7.76561      2.59310        -0.653111     -0.191350     -0.012821
O       5.84604      7.85754     15.67732        -0.442856     -0.568576      0.024672
O       5.80542      7.73500      7.09311         0.049871     -0.272938      0.048512
O       5.75878      7.71939     11.58874        -0.096802      0.916992     -0.270901
O       5.73885     11.50634      2.63345         0.300038     -0.055188      0.370453
O       5.70682     11.70442     15.73448         0.337349     -0.834402     -0.221216
O       5.68010     11.57918      7.20931        -0.298413     -0.473205     -0.244670
O       5.70667     11.60938     11.40436         0.045239     -0.442265     -0.181915
O       9.61498      3.99782      2.66367        -0.242144      0.310975      0.406036
O       9.63485      3.93467     15.89064        -0.098938      0.771760     -0.589426
O       9.50906     15.38764      2.88497         0.545568      0.698802     -1.066916
O       9.53736      0.18745     15.75953         0.244238     -0.530706     -0.016302
O       9.65671      3.93010      7.11396        -0.131071      0.778143     -0.683963
O       9.61844     15.44909      6.99687        -0.418112      0.104109     -0.078884
O       9.60058      3.94681     11.57886        -0.220405      0.268675     -1.378513
O       9.51110      0.20838     11.40613        -0.025887     -0.176330      0.079156
O       9.66821      7.88582      2.73055        -0.389921     -0.635982     -0.343476
O       9.57731      7.82070     15.56420        -0.313963      0.819597     -0.001326
O       9.56579      7.90732      7.20686        -0.067405     -0.497259     -0.410757
O       9.67833      7.82639     11.64995        -0.481272      0.039395     -1.087565
O       9.59124     11.64581      2.73827         0.105119     -0.616345     -0.376618
O       9.55995     11.75794     15.74706         0.624496     -0.818868     -0.266873
O       9.71646     11.67786      7.11153        -0.632934     -0.462527     -0.065278
O       9.71492     11.76149     11.47004        -0.387725     -0.738156     -0.377738
