  # total energy = -7883.38426022 
CRSYTAL
PRIMVEC
    15.3600000000000000    0.2300000000000000    0.0000000000000000
     0.0000000000000000   15.3600000000000000    0.0000000000000000
     0.0000000000000000    0.0000000000000000    17.440000000000000
PRESSURE
2.39252 2.54092 2.93138 0.144402 0.320546 -1.61159
PRIMCOORD
320 1
Pb       3.74576      3.84343      4.28259         0.255573      0.114947      1.010055
Pb       3.83259      3.92562     17.35366        -0.377350     -0.496461     -0.212204
Pb       3.70002      0.08736      4.31356         1.021835     -0.465901      0.432521
Pb       3.75531     15.41209     17.22206         0.252420     -0.631221      1.176296
Pb      15.31858      4.01345      4.36626         0.009319      0.208116     -0.393846
Pb      15.30697      4.06355     17.31558         0.154617     -0.351451      0.042517
Pb      15.33848      0.33557      4.26599        -0.073134     -0.592892      0.677409
Pb       0.00415     15.30671     17.31608        -0.110118      0.001727      0.096633
Pb       3.79481      4.03278      8.71066         0.266230     -0.154260     -0.129276
Pb       3.72871      0.07661      8.74144         0.177941      0.162463     -0.065003
Pb      15.35627      4.13708      8.83946         0.193919      0.161935     -0.162316
Pb      15.25101      0.30399      8.73278         0.695411     -0.459128      0.238863
Pb       3.89433      3.97039     13.07339         0.100078     -0.100946     -0.239234
Pb       3.83731      0.08124     12.99521         0.055639     -0.017224      0.305878
Pb      15.33160      4.05747     13.03757        -0.096518      0.195096     -0.178059
Pb      15.30051     15.53760     13.02283         0.393875     -0.296887      0.197699
Pb       3.85734      7.70831      4.23149         0.002825      0.402066      1.276816
Pb       3.84540      7.69047      0.01444        -0.288792      0.592634     -0.219443
Pb      15.33480      7.79675      4.23166         0.211688      0.256227      0.742588
Pb       0.04962      7.52398     17.37930         0.047749      0.883812      0.752131
Pb       3.81421      7.83056      8.56977        -0.017869     -0.496753      0.631801
Pb      15.27705      8.01538      8.54323         0.412764     -0.193323      1.127540
Pb       3.90874      7.78414     13.04206         0.077163      0.369685     -0.473418
Pb      15.32193      7.93781     13.03479         0.429421      0.217713     -0.334873
Pb       3.84979     11.54868      4.35922         0.102452      0.461472     -0.050362
Pb       3.91264     11.50595     17.37696        -1.023201      0.446977      0.364657
Pb      15.35241     11.67829      4.29217         0.034215      0.642599      0.009690
Pb       0.06825     11.45318     17.33110        -0.426165      0.303296      1.238672
Pb       3.74319     11.54445      8.65451        -0.177627      0.148447      0.168275
Pb      15.24494     11.75453      8.58421         0.665933      0.210972      0.767119
Pb       3.92546     11.55341     13.04057        -0.410984     -0.402831      0.049843
Pb      15.28380     11.75491     12.97042         0.353613     -0.566456      0.764632
Pb       7.61073      3.82888      4.33049         0.306083      0.323987      0.042809
Pb       7.61260      3.96960      0.02497         0.161445     -0.384624     -0.338779
Pb       7.56999      0.18273      4.33778         0.159719     -0.696552     -0.325264
Pb       7.62247     15.39646     17.38881         0.189745      0.145732      0.578324
Pb       7.77405      3.92476      8.69222        -0.511427      0.572235      0.121314
Pb       7.75378      0.19441      8.72785        -0.503087     -0.219888     -0.213334
Pb       7.73583      3.89919     13.03512        -0.257272      0.795287     -0.197374
Pb       7.69707     15.38303     13.07588        -0.140811     -0.062186      0.005059
Pb       7.56484      7.75455      4.27755         0.242154      0.283926      0.360447
Pb       7.71562      7.70479      0.07136         0.041935      0.303074      0.169894
Pb       7.60853      7.89216      8.55918         0.203436     -0.498211      0.432419
Pb       7.64247      7.72946     13.03145         0.003368     -0.313939     -0.004784
Pb       7.62962     11.68579      4.37135         0.176489     -0.226043     -0.206533
Pb       7.66078     11.63509      0.01909         0.318910     -0.065771      1.091383
Pb       7.64291     11.66748      8.57946         0.170066     -0.117673      0.328474
Pb       7.66666     11.49095     12.97461         0.359543      0.413549      0.795021
Pb      11.55413      3.91523      4.20370        -0.066481      0.205448     -0.014809
Pb      11.39259      3.88375     17.30278         0.353511      0.337511      0.434067
Pb      11.44156      0.18290      4.36968         0.176958      0.012330     -0.234605
Pb      11.46474     15.44380     17.31665         0.193631      0.418931      0.953609
Pb      11.51907      3.99081      8.69379        -0.120289      0.476759      0.627665
Pb      11.56135      0.19510      8.69553        -0.254910     -0.315750      0.194708
Pb      11.43919      3.82371     13.03942         0.400884      0.447126     -0.024612
Pb      11.47990     15.42662     13.08014         0.014983      0.180636      0.357227
Pb      11.60994      7.73175      4.26917        -0.516706      0.406405      0.109245
Pb      11.52065      7.75055     17.43461        -0.245601     -0.036336      0.637509
Pb      11.46344      7.89590      8.53567         0.168031     -0.345043      0.757958
Pb      11.38948      7.75774     13.07256        -0.031344      0.132184      0.150064
Pb      11.48985     11.82510      4.24944         0.017492     -0.642793      0.314088
Pb      11.53217     11.47926      0.04594         0.124207      0.690274      0.606909
Pb      11.49294     11.65657      8.68859        -0.224845      0.277618     -0.369360
Pb      11.50506     11.56733     13.06617        -0.076816      0.226549      0.556299
Ti       1.96845      2.00150      2.37001        -0.260179     -0.444515     -0.506514
Ti       1.90412      1.90190     15.28805        -0.354631      0.627825      0.137867
Ti       1.92604     13.49958      2.37727         0.583347     -0.232500     -0.317148
Ti       1.84668     13.42548     15.38029         0.386165      0.470670      0.318535
Ti      13.45498      2.06030      2.27472         0.531363      0.890391      0.288489
Ti      13.42207      2.10959     15.36380        -0.370481     -0.511933      1.000880
Ti      13.48563     13.64152      2.31619        -0.002309      0.573529      1.556175
Ti      13.28721     13.58255     15.46311         1.702926      0.062924     -0.470182
Ti       1.86657      1.98151      6.73980         1.062193     -0.018541      0.930692
Ti       1.88086     13.44050      6.67727         0.155501      0.506856     -0.387460
Ti      13.44062      2.15619      6.78600        -0.021836     -0.219884     -1.278929
Ti      13.40159     13.63437      6.67276         0.337901      1.077367     -0.243041
Ti       1.90995      1.98991     11.16185         0.127570     -0.483124      0.260026
Ti       1.98537     13.40784     11.22219        -1.284197      0.109883      0.641553
Ti      13.41409      2.06799     11.14048        -0.252164      0.549481      0.327810
Ti      13.36708     13.59672     11.16876         0.970419      0.054863      0.384169
Ti       1.92629      5.86651      2.35609        -0.651651     -1.197260      0.151550
Ti       1.86686      5.83971     15.26855         0.718018     -0.982364     -0.822086
Ti      13.48801      5.98515      2.26187        -0.546659     -1.364613      0.741979
Ti      13.41158      5.99691     15.35847        -0.383445     -1.059215     -0.362578
Ti       1.81454      5.80765      6.73390         1.410987      0.175962     -1.048716
Ti      13.39244      5.95156      6.64515         0.366781      0.320357      0.819024
Ti       1.98106      5.80886     11.13392        -0.118004      0.400284     -0.374351
Ti      13.46371      5.99149     11.07142         0.039318     -0.807548      0.431318
Ti       1.89840      9.66501      2.44298         0.354803      0.242338     -2.700554
Ti       1.84694      9.62835     15.38738         1.975007      0.290100      0.306503
Ti      13.46874      9.78297      2.38823        -0.425122      0.587049     -0.625922
Ti      13.44597      9.75353     15.50418         0.318400      0.620033      0.403752
Ti       1.82849      9.63079      6.62029         1.023872     -0.574868     -0.009012
Ti      13.38917      9.85697      6.60026        -0.186679     -0.910918     -1.249145
Ti       1.97484      9.61989     11.11152        -0.291275     -0.092599     -0.481859
Ti      13.39344      9.75884     11.01960         1.090775     -0.035829      0.581995
Ti       5.77258      1.97044      2.27672        -0.626509     -0.841532      0.259367
Ti       5.72419      1.93789     15.35767         0.122471      0.342404      1.678318
Ti       5.76299     13.47419      2.32062         0.265985      0.971771      0.623790
Ti       5.79519     13.44201     15.44308        -1.077566      0.474295     -0.066257
Ti       5.74048      2.02617      6.73314        -0.523893      0.204543      0.718910
Ti       5.68870     13.57384      6.79318         0.455663      0.329439     -0.471458
Ti       5.81029      2.05817     11.11269        -0.680748     -0.412939     -0.740769
Ti       5.79676     13.49486     11.03584        -0.447810      0.970126     -0.202033
Ti       5.67223      5.74107      2.43908         1.002899      0.521142      1.430344
Ti       5.71449      5.83738     15.47627         0.709339      0.107959     -0.172812
Ti       5.76253      5.85169      6.69138        -0.420198      0.329616      0.638939
Ti       5.77761      5.84939     10.90383         0.596853      0.438137      1.880471
Ti       5.73837      9.69482      2.32578         0.560586      0.116921      1.200868
Ti       5.82038      9.67770     15.53061        -0.723141     -0.916570      2.089451
Ti       5.67914      9.75616      6.69783         1.007340     -0.795945     -0.566272
Ti       5.92001      9.70217     10.91925        -2.257929     -1.189692      0.193011
Ti       9.62426      2.04071      2.26581        -0.179353     -0.734127      1.305979
Ti       9.51770      1.97961     15.43455         0.242885     -0.199649      2.110649
Ti       9.64577     13.56018      2.37069        -1.349612      0.041340     -0.052923
Ti       9.58399     13.44671     15.51655         0.280278      0.562771     -2.093398
Ti       9.64029      2.13708      6.72643        -0.204359     -0.720625     -0.704185
Ti       9.55613     13.59201      6.74111         0.562297      0.305949     -0.634001
Ti       9.57066      1.98974     11.04217         0.693471      0.659697      0.318253
Ti       9.59795     13.51956     11.12552        -0.307053      0.309674      1.162013
Ti       9.53880      5.84780      2.40011         0.607811      0.182855     -0.385652
Ti       9.54228      5.87279     15.43269        -0.334447     -0.404783     -0.169443
Ti       9.58720      5.93765      6.70154        -0.638937     -0.590725     -0.021455
Ti       9.66173      5.91114     11.01962        -1.340453     -0.307458     -0.705114
Ti       9.62979      9.66832      2.42730        -0.342894      0.521089     -0.540798
Ti       9.63545      9.68287     15.61974        -1.182591     -0.002098      0.047113
Ti       9.57910      9.74491      6.60528        -0.989156     -0.028965     -0.452022
Ti       9.63326      9.71913     11.00380        -0.523052     -0.912588      0.216360
O       1.97147      1.96873      0.62784        -0.019918      0.071029     -0.499291
O       1.91405      1.81953     13.54838        -0.187500      0.411273     -0.251346
O       1.95858     13.60826      0.62365        -0.379428     -0.236663      0.088494
O       1.80941     13.42139     13.64052         0.192696     -0.173009     -0.692551
O      13.57744      2.09055      0.54370        -0.235779      0.005711     -0.811915
O      13.28679      2.05552     13.64148         0.289703      0.113636     -0.872839
O      13.48499     13.69805      0.62438         0.009082      0.108826     -1.476472
O      13.32584     13.58414     13.68098        -0.119845     -0.293225      0.011517
O       1.94646      2.09247      5.00627        -0.052848     -0.406423     -0.564950
O       1.98526     13.48765      4.94706        -0.138833     -0.165156     -0.318550
O      13.39925      2.06488      5.00612        -0.060865      0.463109      0.844931
O      13.37532     13.72528      4.93843        -0.038635     -0.253479     -0.201179
O       1.80860      1.83085      9.41859         0.166336      0.369039     -0.797206
O       1.90964     13.38971      9.53407        -0.013420     -0.010722     -2.636367
O      13.51841      2.15243      9.42096        -0.079697     -0.078422     -2.096585
O      13.51294     13.58608      9.46298        -0.430570     -0.205630     -1.718607
O       1.92505      5.90502      0.61710         0.288614     -0.490671     -0.924766
O       1.90791      5.79644     13.45106         0.109331      0.252959      1.329098
O      13.63357      5.92359      0.54665        -0.461731      0.114090     -1.269489
O      13.46680      5.82971     13.59773         0.001973      0.903393      0.523943
O       1.77736      5.79578      4.93476        -0.193107      0.068029      0.508300
O      13.51732      5.98096      4.88843        -0.203858     -0.088258      0.043078
O       2.00797      5.76909      9.37295        -0.343685      0.133817     -0.460263
O      13.42865      6.08855      9.34448        -0.026386     -0.366018     -0.489681
O       1.90332      9.69777      0.59787         0.225767     -0.317457      1.218143
O       2.15899      9.59194     13.65971        -0.769506      0.030421     -0.007769
O      13.50418      9.79025      0.62869        -0.467269     -0.068525     -0.253004
O      13.41464      9.82456     13.80150        -0.197432     -0.395016     -1.582517
O       1.85629      9.55099      4.88396         0.147251      0.145284     -1.231777
O      13.33330      9.68436      4.83615         0.557523      0.642075      0.663070
O       1.82886      9.63229      9.36170         0.311036      0.300624     -0.907054
O      13.42753      9.73437      9.26602        -0.193511      0.474024     -0.254536
O       5.59737      1.95437      0.54556         0.188808      0.357807     -0.568947
O       5.73527      1.96295     13.64429         0.263009      0.086240     -0.978887
O       5.74462     13.44081      0.58952         0.099019      0.134316     -1.056988
O       5.73291     13.44672     13.69910         0.591994     -0.158783     -0.374982
O       5.73035      1.97697      4.98237         0.203592      0.276842     -0.061258
O       5.82366     13.62082      5.06406        -0.046434     -0.087608     -0.738734
O       5.86818      1.99346      9.35133        -0.057849      0.187349      0.009873
O       5.72910     13.55589      9.28754         0.163888     -0.229389     -0.205931
O       5.75666      5.88078      0.75893        -0.484699     -0.552022     -2.672300
O       5.77907      5.88517     13.76086        -0.115556      0.119219     -0.881546
O       5.75505      5.85234      4.95159         0.102126     -0.064386     -1.311238
O       5.67751      5.95122      9.21648         0.292149     -0.310615     -1.759469
O       5.62108      9.82951      0.60558         0.358884     -0.601600     -0.500695
O       5.89786      9.57131     13.84968        -0.092774      0.165532     -2.466931
O       5.84557      9.65268      4.96165        -0.578613      0.075862     -0.779214
O       5.86614      9.65600      9.17441        -0.114200      0.534577     -0.442255
O       9.62015      1.99948      0.54940         0.025986      0.213111     -0.947831
O       9.68965      1.99313     13.75362        -0.448950      0.036404     -2.025711
O       9.65530     13.56046      0.63682        -0.115243      0.055596     -0.552076
O       9.64308     13.43657     13.66062        -0.341521      0.053585      1.315062
O       9.67011      2.14178      4.94490         0.059920     -0.082065      0.255053
O       9.60419     13.60779      4.96953         0.015228     -0.090290      0.236519
O       9.59190      2.27042      9.30912        -0.112215     -1.039450     -0.651309
O       9.50718     13.55148      9.42303         0.500004      0.015815     -1.491071
O       9.63730      5.83442      0.64425        -0.430143     -0.133360     -0.577606
O       9.47913      5.96764     13.67938         0.338476     -0.269364     -0.210131
O       9.56332      5.96188      4.96339         0.223515     -0.277657     -0.953056
O       9.66725      5.89783      9.22135         0.035235     -0.042202      1.235438
O       9.67553      9.60590      0.62153         0.091895      0.394617      0.111634
O       9.52558      9.63143     13.89103         0.167185      0.195209     -0.858120
O       9.48515      9.69845      4.85946         0.396940     -0.065412      0.129769
O       9.64302      9.68628      9.27617        -0.006671      0.238951     -0.609256
O       3.86462      1.92472      2.81892        -0.540755      0.156209     -0.064644
O       3.80068      1.77036     15.72376         0.408406      1.343737     -0.277743
O       3.88409     13.38212      2.81244        -0.461031      0.687375      0.065127
O       3.80028     13.46511     15.68276         0.800943      0.006878      0.315511
O       0.02667      1.98134      2.82678         0.092307     -0.455281     -0.225912
O      15.34229      2.11897     15.69402        -0.389361      0.178084      0.100546
O       0.05806     13.48853      2.89732        -0.650009     -0.334775     -0.617522
O      15.30180     13.69487     15.85124        -0.044428     -0.096506     -0.157998
O       3.85639      2.00369      7.24404        -0.581806     -0.209284     -0.309782
O       3.80235     13.50993      7.12205        -0.328438     -0.074816      0.455103
O       0.01516      1.98380      7.09556        -0.847681     -0.230096      0.421212
O       0.00121     13.41592      7.06790        -0.708520     -0.153481      0.317976
O       3.81625      2.12297     11.57591         0.520808     -0.785542     -0.433023
O       3.83329     13.40435     11.50535         1.696072     -0.037318      0.224222
O      15.29940      2.00914     11.49382         0.454809      0.601165      0.440641
O      15.31563     13.49280     11.52270        -0.177728      0.971583      0.166065
O       3.77777      5.87002      2.85105         0.097509     -0.550752     -0.435904
O       3.81229      5.83502     15.78146        -0.745296      0.261750      0.313932
O       0.00648      5.73708      2.65571         0.141590     -0.098647      0.554267
O       0.03183      5.73871     15.79713        -0.631113      0.056218     -0.407030
O       3.79081      5.92730      7.00156        -0.143512     -0.092731      0.454306
O      15.33907      6.00065      7.25920        -0.555899      0.021798     -0.466245
O       3.95110      5.62934     11.32449        -1.172682      0.738292      0.874795
O       0.05758      5.65311     11.40511        -1.143896      0.366918      0.236696
O       3.86127      9.68895      2.76345        -0.257778     -0.285076      0.229230
O       3.83965      9.74882     15.80036        -0.178179     -0.627906      0.311644
O      15.35392      9.87468      2.65376         0.141198      0.014819      0.910462
O       0.02114      9.62811     15.77506        -0.300958     -0.136568      0.022567
O       3.79720      9.71334      7.07327         0.045893     -0.243406     -0.002643
O      15.32614      9.93837      6.85777        -0.942571     -0.276600      0.772721
O       3.89642      9.62191     11.37378         1.189226      0.371644      0.444856
O       0.03167      9.60320     11.47984        -1.245086     -0.212898      0.292927
O       7.67174      2.11800      2.64054        -0.105497     -0.244509      0.258063
O       7.61123      1.96654     15.88395         0.294539      0.131920     -0.321537
O       7.69655     13.55334      2.76554        -0.240310      0.033537      0.211589
O       7.75025     13.52620     15.90672        -1.062907     -0.353044     -0.172724
O       7.76528      2.17513      7.08744        -1.169432     -0.530419      0.064727
O       7.71843     13.64425      7.22661        -0.423278     -0.488803     -0.162893
O       7.71737      2.02635     11.52473        -0.258578     -0.434899      0.179724
O       7.67031     13.59787     11.53663         0.088856     -0.351090     -0.031018
O       7.65181      5.76090      2.69111        -0.393290      0.169897      0.492661
O       7.64962      5.66049     15.80879        -0.018430      1.006836      0.679451
O       7.68337      5.80954      7.08931         0.084174      0.150876      0.066729
O       7.67347      5.83606     11.46048         0.725030     -0.220828     -0.115667
O       7.64828      9.69063      2.80487        -0.140338     -0.250227     -0.566523
O       7.64813      9.77363     16.08522         1.155814     -0.944810     -0.305389
O       7.65721      9.86123      7.00994         0.666663     -0.539159      0.508122
O       7.69138      9.63584     11.46253         0.828438      0.192701      0.043391
O      11.58466      1.99297      2.68909        -1.120331      0.625843      0.050947
O      11.46928      2.08980     15.82462         0.500505     -0.226120      0.063935
O      11.51935     13.63751      2.72284         0.581236      0.135311      0.275440
O      11.46117     13.56414     15.97455         0.648855     -0.632628     -0.367777
O      11.53060      2.10222      7.27983         0.360498      0.085173     -0.419774
O      11.57125     13.61023      7.17280        -1.255457      0.116137      0.362036
O      11.49894      1.99536     11.43361        -0.514570      0.096508      0.348969
O      11.47181     13.49828     11.64571        -0.127280      0.037435     -0.814729
O      11.54841      5.89839      2.66680         0.033381      0.191173      0.353873
O      11.42120      6.01428     15.77082         1.486274     -0.591434     -0.041202
O      11.51183      5.96659      7.12205         0.764213     -0.005063     -0.515487
O      11.46610      5.97715     11.52777         0.694845     -0.076793     -0.168424
O      11.55150      9.74768      2.87851        -0.358777      0.085734     -0.588356
O      11.53772      9.70547     15.97024        -0.107965     -0.204047     -0.262384
O      11.47940      9.77301      6.96330         0.363171     -0.007513      0.451644
O      11.47649      9.66302     11.46645         0.804120     -0.079977      0.071232
O       1.96103      3.84696      2.74408        -0.098960      0.851501      0.032927
O       1.87858      3.89085     15.58885         0.534022     -0.175753      0.544184
O       1.97275     15.37136      2.80654        -0.373247      0.682338     -0.098007
O       1.89128      0.05985     15.73124        -0.384682     -0.876591      0.279066
O      13.44238      4.01145      2.64485         0.038015      0.157379      0.477653
O      13.38840      4.07128     15.70152         0.174770     -0.172034      0.497128
O      13.45704      0.24705      2.85679         0.276822     -0.847229     -0.502931
O      13.38360     15.49368     15.72037        -0.151118      0.750398      0.368888
O       1.91533      3.91885      7.13365        -0.162163     -0.321442      0.327601
O       1.85118     15.36258      7.12788         0.261137      0.589212      0.096705
O      13.46896      4.08761      7.10658        -0.193363     -0.222626      0.068172
O      13.35112      0.21760      7.19676         0.718078      0.231040      0.043500
O       1.89508      3.87769     11.47618        -0.229367     -0.415391      0.216270
O       1.97689     15.36205     11.56216        -0.277307     -0.082485     -0.142551
O      13.32787      4.00836     11.48144         0.422711      0.336056      0.077010
O      13.33649     15.50243     11.37374         0.250777     -0.350116      0.751697
O       1.83732      7.70661      2.69040         0.415416      0.512259      0.386749
O       1.82265      7.70812     15.79475         0.666154     -0.024886     -0.317515
O      13.48794      7.89474      2.68031        -0.190732     -0.804937      0.118241
O      13.49308      7.86740     15.88555        -0.180841     -0.720926     -0.363181
O       1.93529      7.76118      7.17581        -0.874779     -0.154106     -0.479120
O      13.48081      7.91442      7.04512        -0.386899      0.074469     -0.319964
O       1.97275      7.75005     11.52389         0.009968     -1.383233      0.261074
O      13.57086      7.85892     11.49632        -0.748093      0.359438      0.132710
O       1.96186     11.53665      2.77073        -0.477388      0.242349      0.445825
O       1.85160     11.63219     15.91754         0.371191     -1.428812     -0.724323
O      13.45021     11.76771      2.68788        -0.036135     -0.215380      0.442314
O      13.45508     11.68250     15.87228        -0.514149      0.128971      0.159956
O       1.92080     11.48051      6.95938        -0.004613      1.217789      0.777013
O      13.35485     11.77986      7.05887         0.219384     -1.367664      0.133064
O       1.97636     11.44756     11.53478         0.022094      1.166382      0.611726
O      13.37181     11.63356     11.48604        -0.295981     -0.493199      0.009771
O       5.61865      3.84549      2.75731         0.281061      0.609223      0.026218
O       5.69504      3.90682     15.78205        -0.365268     -0.663631      0.486687
O       5.80124      0.09638      2.70084        -0.099837     -0.258770      0.274551
O       5.87092     15.37063     15.83570        -0.568856     -0.045474     -0.373671
O       5.64399      4.02681      7.15662         0.519350     -1.329508     -0.155241
O       5.75120      0.11602      7.09544         0.336319      0.756599      0.593281
O       5.81758      3.92793     11.43614         0.348893     -0.057952      0.400055
O       5.72061      0.09689     11.37560         0.054841     -0.500600      0.649266
O       5.69341      7.70088      2.73703         0.244701      0.795411     -0.033502
O       5.82083      7.73693     16.06251        -0.257541     -0.149168     -0.432171
O       5.84731      7.81966      7.05711        -0.422556     -0.130235      0.010334
O       5.79215      7.77713     11.30665        -0.037847     -0.153016      0.613499
O       5.81490     11.64466      2.79905        -0.197646     -1.205300      0.160378
O       5.84969     11.54239     15.94139        -0.376730      1.436199     -0.586857
O       5.72124     11.63336      6.96510         0.092244      0.507909      0.936689
O       5.92688     11.57932     11.34181        -0.577655      0.095876      0.349446
O       9.53602      3.92889      2.74161         0.876151     -0.043256      0.172067
O       9.51467      3.87716     15.87824         0.366513      0.679028     -0.134027
O       9.52434     15.50047      2.76550         0.389671      0.458713      0.071244
O       9.64851     15.36572     15.86271        -0.567782      1.147612     -0.232602
O       9.65849      3.98893      7.13978         0.284343      0.441936     -0.082406
O       9.60994      0.15064      7.10471         0.301206      0.405443      0.405824
O       9.63783      3.86942     11.45225        -0.168629      1.311653      0.460659
O       9.59629     15.47759     11.56975        -0.107062     -0.512231     -0.428015
O       9.59442      7.79941      2.61621        -0.073135     -0.756099      0.873468
O       9.55027      7.74825     15.90592        -0.404878      0.199059      0.320879
O       9.53548      7.79446      7.12930         0.208838      1.156732     -0.448116
O       9.53650      7.80323     11.52811         0.356278     -0.142918     -0.216479
O       9.54315     11.60330      2.73483         0.601594      0.584911      0.261513
O       9.61066     11.61426     15.96825         0.260101     -0.529433     -0.014971
O       9.62070     11.65528      7.08688         0.140455      0.322489      0.241013
O       9.56878     11.55923     11.42207        -0.061215      0.528475      0.286196
