  # total energy = -7880.43785527 
CRSYTAL
PRIMVEC
    15.3600000000000000    0.2300000000000000    0.0000000000000000
     0.0000000000000000   15.3600000000000000    0.0000000000000000
     0.0000000000000000    0.0000000000000000    17.440000000000000
PRESSURE
0.975206 0.951598 -0.363433 0.046595 0.172578 -1.61831
PRIMCOORD
320 1
Pb       3.83759      3.97924      4.17299        -0.072968     -0.446221      0.324295
Pb       3.77197      3.88144      0.05874         0.159245      0.085221     -0.269991
Pb       3.84834     15.32530      4.35295        -0.159955     -0.083825     -0.643973
Pb       3.83192     15.39449      0.07728         0.180517      0.312762     -0.249966
Pb       0.14631      3.94335      4.39916         0.010134      0.046535     -0.471118
Pb       0.05812      3.77851      0.11531         0.123505      0.439017     -0.441505
Pb      15.24381      0.25848      4.40496         0.773928     -0.156807     -0.605135
Pb      15.28224      0.24149      0.02291         0.140927     -0.397054     -0.469792
Pb       3.79185      3.75261      8.48628        -0.055120      0.434523      0.181142
Pb       3.78475     15.36024      8.59624         0.357995     -0.020705     -0.042386
Pb       0.02033      3.82816      8.61427         0.219843     -0.016149     -0.672873
Pb       0.02701     15.17316      8.63588        -0.042263      0.688453     -0.189470
Pb       3.90530      3.79851     13.12493        -0.364365      0.180043     -0.343951
Pb       3.71304      0.13812     13.15963         0.521372     -0.051277     -0.589532
Pb      15.31240      4.00024     12.98300        -0.162574      0.135864     -0.104821
Pb      15.27243      0.25497     13.00816         0.143242      0.073631      0.010449
Pb       3.85711      7.76170      4.34542        -0.027755     -0.048178     -0.220320
Pb       3.76277      7.68933     17.40727         0.329822     -0.175026     -0.923560
Pb      15.21447      7.88501      4.41920         0.083486      0.000363     -0.446555
Pb      15.30102      7.92542     17.39453        -0.164722     -0.291354     -0.331959
Pb       3.86292      7.61561      8.69132        -0.088306      0.263294     -0.024355
Pb      15.30749      7.81389      8.71878         0.737168      0.204125     -0.119789
Pb       3.74527      7.56882     13.02306        -0.251936      0.250870      0.162059
Pb       0.00144      7.60937     13.05032         0.021291      0.571413     -0.581700
Pb       3.85495     11.42127      4.24753        -0.231975      0.651858      0.091394
Pb       3.82376     11.54666     17.35677         0.001321      0.070297      0.111466
Pb      15.32850     11.65467      4.36579        -0.071178      0.067761     -0.947928
Pb      15.35196     11.86070     17.41769        -0.434772     -0.019917     -0.175508
Pb       3.86495     11.43509      8.71157        -0.109000      0.241359     -0.039221
Pb       0.03622     11.46901      8.61481        -0.013791     -0.328994      0.070400
Pb       3.76528     11.52000     13.06000         0.393751     -0.160003     -0.601526
Pb      15.30748     11.74390     12.97570         0.100286     -0.549665     -0.244710
Pb       7.63951      3.95892      4.27047         0.206628     -0.350394      0.559614
Pb       7.62880      4.01255     17.38336         0.279368     -0.273933      0.408803
Pb       7.68900     15.36330      4.30193         0.140903      0.092745     -0.434978
Pb       7.77952      0.22457      0.01250        -0.364317     -0.204731     -0.168145
Pb       7.54607      3.84299      8.61772         0.254606      0.140884     -0.010179
Pb       7.68689     15.34617      8.72864         0.092736     -0.454136     -0.785573
Pb       7.62240      3.93030     12.99612         0.520558      0.037643      0.182444
Pb       7.65777     15.40765     13.13543        -0.113362     -0.048473     -0.243339
Pb       7.68484      7.72769      4.33034         0.294195      0.100666      0.076608
Pb       7.62203      7.77288     17.42380        -0.385174      0.128964     -1.029099
Pb       7.67436      7.82245      8.79988         0.319207      0.048251     -0.296407
Pb       7.68719      7.87507     13.07225        -0.479860      0.065448      0.203820
Pb       7.65373     11.63068      4.40383         0.140061     -0.395645     -0.355414
Pb       7.56765     11.57435     17.34798        -0.194723      0.294790     -0.540042
Pb       7.61938     11.56525      8.84320        -0.016895      0.081613     -0.799346
Pb       7.66217     11.77791     13.22561        -0.516691     -0.265465     -0.683996
Pb      11.43323      4.10258      4.47539        -0.268567      0.285180     -0.169639
Pb      11.55987      4.06819      0.07917        -0.288746     -0.122364     -0.658972
Pb      11.57460      0.19937      4.41680        -0.450693     -0.416568     -0.050944
Pb      11.47729      0.26838     17.43449        -0.059346     -0.382058     -0.406254
Pb      11.45295      3.77673      8.68869        -0.432610      1.435275      0.158897
Pb      11.46703     15.52703      8.66915        -0.179977     -0.269428     -0.243899
Pb      11.48669      4.04062     13.07331        -0.130202      0.250420     -0.290099
Pb      11.55575      0.28767     12.94428        -0.463165     -0.269636      0.117159
Pb      11.43964      7.87585      4.36920         0.153770     -0.327953     -0.218621
Pb      11.48644      7.84235     17.36510         0.169865      0.706346     -0.440813
Pb      11.60501      7.79216      8.73608        -0.786051     -0.225135     -0.321100
Pb      11.48312      7.87572     13.06362         0.526884      0.125814     -0.415419
Pb      11.54120     11.49414      4.27753         0.227371      0.660914     -0.161809
Pb      11.46531     11.78367     17.25475         0.434002     -0.224914     -0.134083
Pb      11.46524     11.67103      8.76323        -0.022680     -0.009894     -0.630804
Pb      11.52718     11.81607     12.96040         0.232877     -0.520574     -0.008500
Ti       1.97385      1.87612      2.28869        -0.546506      0.529436      1.560358
Ti       1.92829      1.84100     15.46998         0.488962      0.945895      2.043525
Ti       1.98768     13.45261      2.32383        -0.856740     -0.486390      1.047560
Ti       1.87346     13.45210     15.38567        -0.310025      0.238560     -0.666665
Ti      13.38551      2.11165      2.32541         0.896693      1.013355     -0.221463
Ti      13.46517      2.16707     15.43560        -0.496132     -0.609634      0.522635
Ti      13.43422     13.72086      2.34722         0.425668     -2.177637     -0.524231
Ti      13.39595     13.70556     15.26171         0.428805     -0.908913      0.615627
Ti       1.93566      1.90067      6.47161        -0.115499      1.073075      0.477785
Ti       1.95288     13.43830      6.59565         0.051990     -0.461077     -0.745389
Ti      13.38124      2.12666      6.58593         0.777824      0.412479      1.581666
Ti      13.45665     13.64978      6.63448        -0.293955     -0.983708      0.772412
Ti       1.93668      1.91521     10.94286        -0.341822      0.914673      0.606492
Ti       1.95403     13.49106     10.96904         0.194945     -0.787842      0.811808
Ti      13.37166      2.18005     10.94967         0.813489      0.512231     -0.224956
Ti      13.49444     13.71584     11.01894        -0.547912     -0.686514      0.947249
Ti       1.96943      5.84140      2.31074        -0.826552     -0.893289     -0.360899
Ti       1.81746      5.67424     15.36706         0.738841      0.701843      0.910823
Ti      13.41038      5.95692      2.37490         0.698143      0.502718     -0.829661
Ti      13.32096      5.94188     15.33635         1.889570      0.510123     -1.230833
Ti       2.01773      5.78775      6.62823        -1.598628     -0.723499      0.168617
Ti      13.36632      5.91258      6.76364         0.271377      0.607127     -0.691957
Ti       1.85003      5.61818     10.96422         0.763502      1.530803     -0.695612
Ti      13.41443      5.95951     10.93130        -0.619198      0.633023      1.099974
Ti       1.94462      9.54319      2.25283        -0.970682      1.062223      0.666948
Ti       1.85525      9.62692     15.40031        -0.119532     -0.625045     -0.884352
Ti      13.41442      9.77533      2.15850         0.160059      0.029828      0.496529
Ti      13.44723      9.82990     15.33309        -0.992477      0.492251      0.597623
Ti       1.98006      9.56462      6.67144        -0.589277      0.099587      1.155171
Ti      13.44130      9.72261      6.74962         0.187318      0.782189     -0.401857
Ti       1.89464      9.59457     11.02731        -0.946214     -0.507056      1.259507
Ti      13.35172      9.82740     10.97475         1.489502     -0.434377      2.067699
Ti       5.77947      2.01266      2.35869         0.065926     -0.346706     -1.731599
Ti       5.81790      1.98973     15.48767        -1.011546     -0.799809      0.786254
Ti       5.78654     13.47670      2.28799        -0.370224     -0.071774     -0.124724
Ti       5.60370     13.62426     15.34563         1.695155     -0.433696     -0.663741
Ti       5.75727      1.87085      6.51652        -0.412279      1.493698      0.172818
Ti       5.71812     13.45720      6.59735         0.857789     -0.573649      0.442559
Ti       5.79500      1.94524     11.00423        -1.220633     -0.562087      0.386279
Ti       5.72628     13.52151     10.98350         0.027135     -0.258543      0.349804
Ti       5.82197      5.85639      2.30725        -0.211164      0.006049     -1.498878
Ti       5.74893      5.75469     15.41165        -1.208706      1.507792      0.639448
Ti       5.82393      5.79886      6.66984        -1.121010      0.167244     -0.506286
Ti       5.76802      5.82705     11.07409        -0.885943      0.119366     -0.416460
Ti       5.80305      9.66847      2.24718         0.070299     -0.085090     -1.730912
Ti       5.70569      9.74708     15.35380        -0.035568     -1.464329     -0.349006
Ti       5.81967      9.61035      6.67104         0.036335      0.596471      1.976132
Ti       5.74125      9.64889     11.13575        -0.090023      0.604667     -0.359380
Ti       9.61268      2.04657      2.41049        -0.119479     -0.089369     -0.349047
Ti       9.64651      2.09944     15.41994        -0.559372      0.278721     -0.591735
Ti       9.58706     13.53104      2.26352         0.531924      0.393496      0.253762
Ti       9.54064     13.61494     15.29943        -0.222552      0.744835      0.687053
Ti       9.56771      2.01611      6.60412        -0.041515      0.045103      0.318583
Ti       9.71842     13.48747      6.57419        -1.240866      0.249067      1.250671
Ti       9.53809      2.07104     11.02660         0.295957     -0.263188     -0.183721
Ti       9.61480     13.59436     11.02585        -0.026203      0.081575     -0.260913
Ti       9.61794      5.95722      2.30246        -0.701158     -0.409966      0.582876
Ti       9.53984      5.93701     15.31248         0.187610     -0.404671     -0.997737
Ti       9.50835      5.83193      6.78337         1.967386      0.902975      0.220646
Ti       9.57432      5.93933     11.11040         0.415613     -0.906086     -1.304235
Ti       9.53771      9.84093      2.17105         0.008641     -1.352480      0.709644
Ti       9.51633      9.81707     15.28809         1.269517     -0.721886      0.442425
Ti       9.60739      9.69931      6.61180        -0.052262     -0.289806      1.362030
Ti       9.55571      9.75707     11.11504        -0.188808      1.033385     -0.486004
O       1.91147      1.91136      0.56053        -0.154643      0.125676     -1.727335
O       2.02952      1.85526     13.78645        -0.624385      0.161081     -2.497577
O       1.95624     13.35512      0.58353        -0.055395      0.169234     -1.020011
O       1.96088     13.49536     13.57590        -0.021274     -0.022712      0.689520
O      13.22015      2.26254      0.50651         0.705305     -0.810343      0.991509
O      13.58227      2.11521     13.70644        -0.545828      0.113417     -1.132301
O      13.51535     13.68959      0.57944        -0.051049      0.239698      0.430411
O      13.50283     13.57994     13.49800        -0.304299      0.566477     -0.628406
O       2.06255      2.03223      4.72871        -0.220847     -0.528819     -0.768194
O       1.98012     13.49061      4.83286        -0.121620     -0.160048      0.222487
O      13.37626      1.98600      4.87949        -0.177885      0.558383     -1.877781
O      13.42312     13.47956      4.91320         0.122594      0.414347     -1.183857
O       2.02460      2.21207      9.23212        -0.373678     -0.981229     -1.193368
O       1.92412     13.34872      9.24415        -0.531722      1.042876     -1.452609
O      13.30723      2.35520      9.16139         0.752445     -1.120184      0.707032
O      13.50309     13.84488      9.30022         0.318219      0.051853     -1.746178
O       1.89801      5.71626      0.54197        -0.426210      0.362744      0.012595
O       1.98736      5.67983     13.61542        -0.334622      0.034477     -0.132271
O      13.48336      6.02611      0.58164        -0.290782     -0.470211      0.154979
O      13.27799      5.97182     13.50540         0.054149     -0.192138      1.455251
O       1.99824      5.70813      4.85604         0.142201      0.278542     -1.083515
O      13.39487      6.18799      4.98149        -0.111994     -0.552805     -0.895679
O       1.80278      5.69471      9.13404         0.447867     -0.262410      0.801413
O      13.33524      5.95609      9.16597         0.586490     -0.211646     -0.323317
O       1.89780      9.62333      0.51450         0.022118     -0.096547     -0.371879
O       1.74619      9.62796     13.58766         0.641094      0.147723      1.086228
O      13.28243      9.73793      0.39744         0.483589      0.115979      0.326005
O      13.41422      9.97932     13.58757        -0.376895     -0.369103     -0.444471
O       1.99641      9.51438      4.94970         0.209169      0.177171     -1.251688
O      13.46150      9.73042      4.93676        -0.372446     -0.094962      0.568756
O       1.83258      9.54591      9.30625         0.124760      0.032294     -1.230285
O      13.54714      9.72179      9.28547        -0.216514      0.163282     -2.056289
O       5.86400      1.96490      0.54836         0.078390     -0.092108      0.723692
O       5.70541      1.92980     13.73867         0.168287      0.268752     -0.932398
O       5.70267     13.38187      0.50142         0.313700      0.132876      0.282661
O       5.64451     13.62425     13.52077        -0.205400     -0.139378      0.901720
O       5.54427      2.03852      4.78237         0.667992     -0.369091     -0.514213
O       5.60408     13.40484      4.82003         0.728179      0.055158      0.711027
O       5.90266      1.82926      9.25334        -0.421801      0.517773     -0.482943
O       5.75783     13.57989      9.20095         0.536268      0.225801     -0.528683
O       5.88274      5.82836      0.47680         0.361025      0.438255      0.895054
O       5.48895      5.67493     13.65826         0.765927     -0.078983     -0.130173
O       5.79440      5.75202      4.90733        -0.398792      0.369088     -0.604373
O       5.80428      5.88377      9.29538         0.017476     -0.030839      0.167802
O       5.79849      9.66655      0.36509         0.449098      0.211505      1.276778
O       5.65477      9.77229     13.59161        -0.063610     -0.120131     -0.644154
O       5.60667      9.61883      4.99122         0.155578     -0.058210     -2.253157
O       5.87316      9.49272      9.31018        -0.063467      0.536378      0.511023
O       9.71057      1.93879      0.61746        -0.238722      0.250290      0.174971
O       9.61405      2.08859     13.65118        -0.027491     -0.036145     -0.407044
O       9.67463     13.63513      0.50561        -0.642825     -0.201823     -0.512400
O       9.44971     13.71274     13.55001         0.764636     -0.384347     -0.848265
O       9.66456      2.06711      4.86523         0.384160     -0.280801     -1.280603
O       9.71735     13.44317      4.84282        -0.203524      0.141164     -0.629058
O       9.59989      2.06595      9.24297        -0.297536     -0.125229     -0.247009
O       9.63868     13.68357      9.23371        -0.372563     -0.393195      0.107309
O       9.50661      6.00892      0.56801         0.124476     -0.008816     -0.756999
O       9.59283      5.65644     13.47964         0.100547      0.986252      0.998492
O       9.67308      5.90176      5.05198        -0.047100     -0.038402     -1.772507
O       9.59018      5.77388      9.32706        -0.660907      0.552809     -0.060118
O       9.45198      9.79520      0.40553        -0.059817     -0.094279     -0.020069
O       9.72229      9.89000     13.54524        -0.501872     -0.205142     -0.830801
O       9.57293      9.72227      4.87445         0.547298      0.039657     -0.947145
O       9.26783      9.90439      9.34446         0.815559     -0.696731      0.042939
O       3.90709      1.90152      2.51475         0.059419      0.412242      0.519836
O       3.85133      1.79413     15.78742         0.007442      0.839631      0.592948
O       3.91575     13.34505      2.80104         0.021853      0.647311     -0.568777
O       3.79348     13.40228     15.78276        -0.037155      0.417724      0.088271
O       0.06034      1.80092      2.66680        -1.177133      0.007484      0.138488
O      15.31219      2.16068     15.86472         0.519323      0.033900      0.397055
O       0.05488     13.45696      2.77129        -0.422123      0.161211      0.006926
O      15.34168     13.76466     15.81004         0.684786     -0.495351      0.121323
O       3.82734      1.92583      6.95224         0.826511     -0.154084      0.607842
O       3.79945     13.51751      6.95458         0.907925      0.285030      0.691146
O       0.05208      1.98623      6.83668        -1.117284     -0.101413      0.406987
O       0.05929     13.51619      7.08475        -0.671423     -0.244197     -0.154108
O       3.74319      1.96458     11.45260         1.319026      0.586148      0.127203
O       3.88023     13.36406     11.04592        -1.748119      0.049323      1.255508
O      15.29666      2.11186     11.44221         0.123443      0.097084     -0.242821
O      15.33853     13.80121     11.45199         0.457724      0.244239     -0.368611
O       3.87388      5.77697      2.44225         0.388438      0.384677      0.928938
O       3.85500      5.84595     15.89581        -0.370999     -0.382515     -0.044888
O       0.01781      5.83481      2.80369        -0.278807     -0.486280     -0.009880
O      15.33001      5.89393     15.69414        -0.659725     -0.246191      0.233171
O       3.84171      5.85740      7.05342         0.834905      0.048288      0.251913
O       0.00446      5.60317      6.93985         0.248025      0.225990      0.510761
O       3.74784      5.78912     11.40354         0.638433     -0.270055     -0.161488
O      15.33654      6.00580     11.30920        -0.818595      0.066902      0.295013
O       3.95158      9.51209      2.58257        -1.195115      0.237984      0.532468
O       3.80146      9.55145     15.68665        -0.685185      0.447818      0.410513
O      15.35053      9.69509      2.68123         0.571688      0.232032     -0.240724
O      15.30130      9.88554     15.69758         0.653636      0.160177      0.618096
O       3.83543      9.64352      7.15370         0.164353     -0.724178      0.040046
O      15.32754      9.82612      7.08767         0.942600     -0.111779      0.030347
O       3.78689      9.68270     11.37511        -0.345834     -0.002349      0.173025
O      15.24892      9.77108     11.52874         0.242737     -0.246351     -0.209275
O       7.72236      2.04701      2.74242        -0.206952     -0.274840      0.296816
O       7.71958      2.06821     15.82048        -0.010111     -0.098312      0.206112
O       7.65792     13.37410      2.81671         0.195554      0.648741     -0.187579
O       7.60970     13.64741     15.48810         0.310037     -0.699722      0.756556
O       7.66277      2.16219      6.79232        -0.211747     -0.512988      0.675875
O       7.67741     13.56046      6.94403        -0.125904     -0.097247     -0.048836
O       7.61401      1.98157     11.38403         0.350868     -0.166075      0.404052
O       7.66015     13.43858     11.48605         0.173492      0.668764     -0.385889
O       7.70197      5.73000      2.87674         0.238720      1.269264     -0.697014
O       7.70102      5.82223     15.66431        -0.674139     -0.381820      0.190713
O       7.65399      5.80040      6.93244         0.346978     -0.081719      0.974742
O       7.63266      5.95479     11.43667        -0.463695     -0.360306      0.474998
O       7.62650      9.74537      2.72453         1.114204     -0.562269      0.030293
O       7.63734      9.69573     15.51501         0.063844      0.703632      0.756468
O       7.75532      9.77920      6.88814        -1.165734     -0.160688      0.628215
O       7.65212      9.74454     11.51869        -0.077641     -0.172904      0.476737
O      11.57444      1.87604      2.77366        -0.612691      0.780815     -0.116345
O      11.44524      2.06444     15.85105         1.096446     -0.165990      0.019915
O      11.46907     13.44582      2.57764         0.971687      0.470958      0.500403
O      11.57334     13.63462     15.61680        -1.474444      0.184195      0.248087
O      11.46989      2.10912      7.08014         0.680062     -0.613009     -0.324601
O      11.55925     13.60263      7.09434         0.131112     -0.135190      0.205886
O      11.48916      2.11777     11.40186         0.141636      0.187258      0.082046
O      11.54597     13.68653     11.26652        -0.273646      0.019541      0.831713
O      11.46421      6.00210      2.70341         0.779673     -0.749754      0.315220
O      11.56107      6.02486     15.80386        -1.610571      0.202972      0.107612
O      11.52107      6.05277      6.98531        -0.348016     -0.046569      0.807851
O      11.42727      5.87275     11.28131         0.445718     -0.066356      0.840377
O      11.45657      9.84885      2.59885         0.377263     -0.537038     -0.083000
O      11.42730      9.72231     15.71961         0.482752     -0.052444      0.364837
O      11.55052      9.71838      7.21623        -0.074303      0.248531     -0.283581
O      11.49672      9.79951     11.34548        -0.603885     -0.024196      0.159147
O       1.93547      3.84277      2.57667        -0.087595      0.408987      0.612742
O       1.95584      3.84228     15.83787        -0.010943     -0.537286      0.228696
O       2.10787     15.35253      2.52644        -0.076441     -0.323359      0.694829
O       2.02182     15.35459     15.84396        -0.853818     -0.866063      0.291338
O      13.47852      4.02795      2.65058        -0.387724     -0.484463      0.431732
O      13.22923      4.01108     15.73166         0.408369      0.846013      0.260828
O      13.48597     15.54211      2.78861        -0.312295      0.047757     -0.107887
O      13.47890     15.52021     15.69847        -0.298457      1.362796      0.535048
O       2.02038      3.83892      6.79611         0.170994     -0.074160      0.984945
O       1.91023      0.05694      6.85368         0.134134     -0.862730      0.878622
O      13.29628      4.05418      6.93112         0.194067     -1.076513      0.031021
O      13.33529      0.21333      6.78451         0.619673     -0.198564      1.077139
O       1.73969      3.80897     11.34973         0.336508      0.106853      0.631834
O       2.01230      0.09515     11.30571        -0.517266     -1.735557      0.126256
O      13.42682      4.12664     11.43956         0.029664     -1.413255      0.026789
O      13.37049      0.32945     11.40374         0.248981     -0.605490      0.137567
O       1.97965      7.68919      2.72734         0.288853      0.281481     -0.067950
O       1.75872      7.68194     15.89320         0.612815      0.165302     -0.523691
O      13.40526      7.86367      2.61966        -0.273718      0.552467      0.475557
O      13.52096      7.91808     15.67615        -0.367666     -0.735020      0.201093
O       1.91412      7.64908      6.99157        -0.110350      0.668654      0.378735
O      13.52817      7.83891      7.22016        -0.327225      0.704341     -0.218754
O       1.83393      7.63522     11.47224         0.211828      0.223159     -0.113585
O      13.19386      7.84003     11.36241         0.740488     -0.104241      0.157873
O       1.97067     11.54187      2.72331        -0.069248     -1.591498      0.082754
O       1.89444     11.56819     15.87771        -0.020297     -0.411906     -0.484217
O      13.60572     11.64241      2.69055        -0.632177      0.353444      0.016052
O      13.39406     11.78843     15.80455         0.297740     -0.288325      0.043183
O       1.99684     11.53110      7.05726        -0.562679     -0.030585     -0.041190
O      13.51287     11.74341      7.03806        -0.326459     -0.265091      0.524814
O       1.67554     11.55800     11.28041         0.798188      0.019556      0.524369
O      13.40439     11.74798     11.24620         0.097343      0.639734      0.267022
O       5.80233      3.98029      2.53710        -0.078562     -1.051511      0.787099
O       5.71186      3.81096     16.00714         0.034807      1.210390     -0.844791
O       5.89255     15.39953      2.64988        -0.254095     -0.316255      0.309522
O       5.76511     15.43258     15.93768        -0.037341     -0.346603     -0.249223
O       5.74506      3.95122      7.00498        -0.205237     -1.207439      0.485088
O       5.77872     15.43170      6.95628        -0.119283     -0.590971      0.005889
O       5.74841      3.89112     11.47130        -0.033873      0.040379     -0.307165
O       5.59895     15.39420     11.40302         0.645832      0.689176      0.051004
O       5.89878      7.72198      2.76642        -0.307966      0.217863     -0.220015
O       5.80442      7.71285     15.73674         0.075570     -0.263627      0.084656
O       5.84188      7.75539      7.08033        -0.188623     -0.420131      0.208908
O       5.68062      7.77455     11.61538         0.237353     -0.832895     -0.303869
O       5.82906     11.51250      2.60246        -0.544739      0.193742      0.405219
O       5.73665     11.61231     15.59302        -0.013008      0.777560      0.799306
O       5.71836     11.52834      7.13717         0.047594      0.907079     -0.162562
O       5.69756     11.54354     11.39958         0.218629      0.455910      0.138094
O       9.55451      3.95546      2.68369         1.115337     -0.084961      0.248890
O       9.64312      4.08593     15.79175         0.291780     -0.709143      0.320682
O       9.48643     15.42385      2.68632         0.152395     -0.007223      0.505852
O       9.53371      0.14840     15.72605         0.395784      0.157274      0.518074
O       9.76559      3.96207      6.93012        -0.771980     -0.317187      0.539236
O       9.68579     15.48390      6.98753        -0.429101     -0.013832      0.033892
O       9.48745      3.88693     11.39641        -0.211007      0.847842      0.377278
O       9.59335     15.49103     11.35060        -0.236972      0.378638      0.589560
O       9.56892      7.78855      2.76569        -0.420730      0.909392     -0.254102
O       9.42850      7.84744     15.57152         0.670298     -0.688356      0.329903
O       9.58307      7.80404      7.14823        -0.300995      0.437190      0.096031
O       9.53089      7.87803     11.50512         0.312489     -0.709679     -0.073003
O       9.52616     11.60869      2.61379        -0.100103      0.392084      0.212989
O       9.63508     11.71924     15.63398        -0.539989      0.243898      0.410357
O       9.64979     11.62089      6.99464         0.349254      0.422815      0.459836
O       9.70264     11.67921     11.34511        -0.366677      0.723520      0.417226
