  # total energy = -7882.05308208 
CRSYTAL
PRIMVEC
    15.3600000000000000    0.2300000000000000    0.0000000000000000
     0.0000000000000000   15.3600000000000000    0.0000000000000000
     0.0000000000000000    0.0000000000000000    17.440000000000000
PRESSURE
1.72032 1.84896 2.48068 -0.076314 0.31742 -1.62168
PRIMCOORD
320 1
Pb       3.69341      3.74010      4.55196         0.001558      0.772634     -0.714007
Pb       3.86831      3.89886     17.35805         0.084453      0.308217     -0.090193
Pb       3.74472      0.14653      4.31735        -0.047120     -0.691146      0.135674
Pb       3.81500      0.08871     17.36521         0.124981     -0.010978      0.155055
Pb      15.18257      3.91297      4.20190         0.726104      0.582649      1.240264
Pb      15.29599      4.08463     17.19984         0.173005     -0.182898      0.727202
Pb       0.04721     15.24284      4.29207        -0.348097      0.074334     -0.115909
Pb       0.03563     15.34489     17.29661        -0.239436      0.000555      0.526848
Pb       3.80452      3.93711      8.77468         0.224117     -0.419294      0.071332
Pb       3.82407     15.41524      8.74800         0.202190     -0.021203      0.219755
Pb      15.30379      4.06160      8.73261        -0.090899      0.269497     -0.480775
Pb      15.31235      0.32806      8.71833        -0.070626     -0.493116      0.306943
Pb       3.74943      3.94899     12.98349         0.315286     -0.740291      0.313976
Pb       3.95085     15.38416     12.99536        -1.272280      0.326003      0.201586
Pb       0.03966      3.87380     12.99081         0.396959     -0.537331      1.218112
Pb       0.03946     15.29778     13.07842         0.375902     -0.145825     -0.529462
Pb       3.72661      7.62339      4.40876         0.407191      0.664028     -0.245646
Pb       3.92395      7.76126     17.41692         0.183795     -0.556752     -0.004471
Pb       0.10266      7.64070      4.26861        -0.525676     -0.186830      0.093499
Pb       0.09174      7.70859     17.43905        -0.202733     -0.183079     -0.318730
Pb       3.69044      7.85702      8.61987         0.227062     -0.303224      0.059813
Pb       0.00207      7.73124      8.68654        -0.137257     -0.093165     -0.360144
Pb       3.86285      7.98202     13.09762        -0.186439     -0.783183     -0.305137
Pb      15.30903      7.94406     13.03255         0.365797     -0.273280      0.026832
Pb       3.81377     11.71785      4.40505         0.147328     -0.703646      0.248684
Pb       3.80437     11.66208     17.37161         0.598726     -0.378898      0.640057
Pb      15.29299     11.83622      4.32521         0.374358     -0.160569      0.099454
Pb      15.34318     11.57532      0.06201         0.242635      0.295962      0.006230
Pb       3.68402     11.67757      8.63174         0.408531     -0.689137      0.169244
Pb      15.15454     11.71036      8.75685         0.633127     -0.032793     -0.530531
Pb       3.82757     11.60316     13.11080        -0.179703      0.321236     -0.539025
Pb       0.00188     11.49771     13.17810         0.003960      0.213636     -1.049280
Pb       7.61508      3.93983      4.39142         0.068476      0.322520     -0.331054
Pb       7.68416      3.81709     17.36459        -0.158873      0.375798     -0.008424
Pb       7.49574      0.25609      4.38316         0.562580     -0.597823      0.477537
Pb       7.47086     15.39509     17.24133         1.136048      0.393849      0.759982
Pb       7.70316      4.05453      8.75448        -0.269431     -0.397434      0.160938
Pb       7.54479      0.21895      8.72503         0.632470     -0.454869      0.013883
Pb       7.68385      3.82544     13.03407         0.132062      0.188690     -0.105768
Pb       7.69707     15.47104     12.98780         0.504385     -0.417353     -0.068829
Pb       7.66876      7.81905      4.28463        -0.194613     -0.292804      0.239088
Pb       7.67254      7.85332      0.00154        -0.123860     -0.695053     -0.199838
Pb       7.64112      7.69149      8.52624        -0.220272      0.211798      1.138180
Pb       7.68112      7.73871     12.99908        -0.021789      0.226150     -0.024854
Pb       7.61425     11.58787      4.20720        -0.234139      0.065848      0.766519
Pb       7.86009     11.63027     17.40781        -0.532912     -0.192504     -0.027053
Pb       7.61983     11.60229      8.55483        -0.130299      0.225380      0.481119
Pb       7.71578     11.43318     12.92695        -0.097343      1.196914      0.708350
Pb      11.51564      3.85021      4.22016        -0.237945      0.407889      0.253823
Pb      11.48814      3.97417     17.32879        -0.222926     -0.091822     -0.074292
Pb      11.44861     15.52900      4.21780         0.586819      0.003671      1.150801
Pb      11.53891     15.38654     17.36412        -0.321766      0.242240     -0.501576
Pb      11.60413      4.15515      8.64219        -0.398371     -0.430455      0.556960
Pb      11.54427     15.46250      8.76081        -0.570832      0.307811     -0.085699
Pb      11.67625      4.02227     13.07635        -0.621642     -0.353729      0.115475
Pb      11.47526     15.20733     13.12209        -0.085847      0.650002     -0.357569
Pb      11.51236      7.82317      4.29884         0.193375     -0.396894     -0.255831
Pb      11.56917      7.81159     17.41494        -0.412915     -0.115963      0.086935
Pb      11.44984      7.89989      8.59555         0.427586     -0.678996      0.320618
Pb      11.56597      7.74422     12.96646        -0.061219      0.326539     -0.177341
Pb      11.40499     11.79339      4.47079         0.400248     -0.409243     -0.618084
Pb      11.58597     11.60704      0.01695        -0.236178      0.177573      0.212919
Pb      11.48425     11.58804      8.56550         0.348736      0.655559      0.189645
Pb      11.43726     11.56071     13.14595         0.307704      0.286035     -0.550425
Ti       1.86604      1.98939      2.23786         0.493549     -1.282128     -0.029246
Ti       1.89145      1.97172     15.45240         0.202198     -0.565224     -2.202669
Ti       2.03150     13.45775      2.27437        -0.947372     -0.530263      0.211685
Ti       1.90961     13.44612     15.48455         0.241167     -0.136764     -0.748697
Ti      13.43558      2.02305      2.18793         0.090463      0.319184      1.999118
Ti      13.35687      2.06512     15.30039         0.349811     -0.548375      0.835707
Ti      13.40577     13.62180      2.29686         0.708813     -1.150268      1.193019
Ti      13.50091     13.52429     15.38814        -0.859133      0.741374     -0.508042
Ti       1.83978      1.90852      6.78467         0.476962      0.571026     -0.070445
Ti       1.81849     13.52378      6.82031         0.835977     -1.101773      0.240517
Ti      13.36322      2.09442      6.76141         0.441715      0.028833     -1.931125
Ti      13.42405     13.65725      6.68878         0.223063     -0.302209     -0.283042
Ti       1.89831      1.87709     11.13249         0.977821     -0.571370      0.983509
Ti       1.90780     13.35732     10.98399        -0.394294      0.219909      0.943621
Ti      13.38734      2.05764     11.15384         0.254413     -0.378551      1.181346
Ti      13.42247     13.55608     11.01754         1.142055     -0.088295      0.239896
Ti       1.92010      5.72640      2.25826         0.302339      0.467548     -0.202714
Ti       1.98754      5.81175     15.43222        -0.493671      0.230829     -0.186836
Ti      13.40794      5.85320      2.34673        -0.179380      1.339596      1.465067
Ti      13.40386      5.93591     15.41499         0.510922     -0.081631      0.288372
Ti       1.88598      5.70899      6.73990        -1.049072      0.991755      0.906917
Ti      13.41278      5.91912      6.51207         1.017970      0.352123      0.380785
Ti       1.93800      5.78400     11.03197         0.000913      0.492823      1.900927
Ti      13.51326      5.87019     11.07081        -0.829381      0.883101      0.615254
Ti       1.91068      9.63000      2.36033         0.758083      0.387017      1.510145
Ti       1.99341      9.65226     15.34154        -1.069874     -0.497717      0.635452
Ti      13.49952      9.78667      2.40668        -0.769481     -0.441596      1.199200
Ti      13.40681      9.75786     15.31387         0.320321      0.080121     -0.055034
Ti       1.85805      9.67310      6.59991         0.150918     -0.404362      0.232924
Ti      13.40156      9.69141      6.61717         1.204172      1.251849      1.832850
Ti       1.87333      9.54909     10.99796        -0.530079      1.110109      1.142472
Ti      13.39332      9.80323     11.01413         0.929408     -0.380766      1.062296
Ti       5.73354      2.00287      2.30728        -0.691317     -0.061349     -0.379716
Ti       5.69522      1.99623     15.25047         0.202476      0.183786      1.582922
Ti       5.77653     13.54224      2.37297        -0.547760     -0.681131      0.196926
Ti       5.73326     13.51283     15.31572         0.018143     -1.248454     -0.477690
Ti       5.66138      2.03219      6.71231         0.825800      0.352500      1.556278
Ti       5.73192     13.50708      6.77673         0.141266     -0.870001     -0.561939
Ti       5.83065      2.00647     11.03149        -2.019005      0.307029      0.436675
Ti       5.74314     13.49041     11.07110        -0.178228      0.872815     -1.043777
Ti       5.70201      5.81874      2.35689        -0.696531      0.335704     -0.182064
Ti       5.80346      5.75801     15.27643        -0.500596      0.963740      1.803742
Ti       5.66875      5.83394      6.68241        -0.072219     -0.109326      0.022129
Ti       5.71893      5.88041     11.15175         0.568975     -0.615901     -0.551298
Ti       5.72601      9.59933      2.33919        -0.583200      0.654915     -0.087080
Ti       5.74338      9.66367     15.38865         0.641735     -0.108486      1.178612
Ti       5.74338      9.62322      6.68797        -1.027211      0.583102     -0.032546
Ti       5.75975      9.68079     10.92720        -0.349971      0.293332      1.159335
Ti       9.53597      1.99095      2.26569         0.203511      0.589869     -0.753682
Ti       9.54520      1.99469     15.32635        -0.163771     -0.311260      0.544521
Ti       9.54066     13.61251      2.40272         0.504884     -1.105379     -0.384770
Ti       9.58771     13.51945     15.45196         0.578248      0.811790     -1.343090
Ti       9.57811      2.11964      6.80238        -0.246186     -0.776730      1.116727
Ti       9.63435     13.66065      6.73269        -1.177094     -0.101498      1.392573
Ti       9.65997      2.08769     11.00856         0.214904     -1.299705      0.934111
Ti       9.56915     13.54470     10.96149        -0.084672      1.172198      0.524230
Ti       9.50906      5.80658      2.29984         0.873636      0.471737      0.479342
Ti       9.54362      5.84578     15.35225        -0.267717      0.022391      2.352003
Ti       9.54521      5.88390      6.70451         0.855045     -0.377864     -1.978961
Ti       9.56002      5.83295     11.13658         0.747658      0.210618     -0.924934
Ti       9.66177      9.65660      2.34585         0.479073      0.800360     -0.335318
Ti       9.59981      9.67563     15.41856         0.184947     -0.122857      1.831814
Ti       9.56572      9.72959      6.67266        -0.142984      0.022935      0.077062
Ti       9.60940      9.70518     10.91154         0.490633     -0.023013      1.736195
O       1.71688      1.76858      0.50470         0.551466      0.735713     -0.258725
O       2.05785      1.82425     13.66396        -0.644150      0.302635      0.764369
O       2.03745     13.40202      0.51064         0.027609      0.236840     -0.244316
O       1.98651     13.38152     13.70256        -0.280081     -0.271963      0.882116
O      13.47669      2.15042      0.49574        -0.225344     -0.183367     -1.155879
O      13.32795      2.01975     13.56992         0.243758     -0.074899     -0.510056
O      13.37735     13.46339      0.57062        -0.161597      0.518011     -0.470197
O      13.50450     13.49661     13.58944        -0.111389      0.500297      0.782607
O       2.06125      1.87581      5.04324        -0.362077      0.301070     -0.999615
O       1.99663     13.49282      5.10349        -0.283198      0.226329     -1.385511
O      13.39382      2.11657      4.95423        -0.038550      0.039623      0.777589
O      13.39326     13.58011      4.91760         0.165874      0.481550     -0.222571
O       1.89075      1.89154      9.39024        -0.219717      0.067201     -1.167013
O       1.88143     13.31060      9.23037         0.079649      0.710797     -0.982155
O      13.53796      2.17644      9.44156         0.078128     -0.124448     -1.666757
O      13.47466     13.49894      9.22186        -0.279020      0.416380      0.673500
O       1.99645      5.76046      0.48934        -0.241951     -0.058842     -0.089360
O       1.99040      5.93622     13.69551         0.044407     -0.394406     -0.437715
O      13.41159      5.82070      0.64620        -0.151165     -0.073776     -2.380941
O      13.39613      5.93334     13.69675        -0.048673      0.053751     -1.003236
O       1.96317      5.69376      5.02919         0.271088      0.091531     -1.310274
O      13.47752      5.98661      4.75247        -0.283096     -0.676468      0.286556
O       1.78587      5.83194      9.34072         0.048456     -0.335929     -1.596063
O      13.44097      5.80279      9.34597         0.182526      0.109204     -0.643010
O       1.86716      9.74965      0.62728        -0.347624     -0.340882     -0.864365
O       1.85852      9.68441     13.57833         0.537285     -0.100505      0.238970
O      13.69385      9.81539      0.69216        -0.429624      0.041674     -1.817242
O      13.33621      9.82293     13.52106         0.181742     -0.444300      1.399668
O       1.91324      9.57172      4.84684        -0.143744      0.095970     -0.097363
O      13.42739      9.75141      4.94104        -0.185066      0.079443     -2.057113
O       1.84147      9.36636      9.27700        -0.051976      0.594655     -0.781267
O      13.44804      9.74808      9.25169        -0.280393      0.313376     -0.274589
O       5.88942      1.78634      0.56106        -0.519205      0.638155      0.504430
O       5.60398      1.95272     13.53978         0.762072      0.235820     -0.587444
O       5.73708     13.59186      0.62859         0.073071      0.039209     -0.719012
O       5.68612     13.45857     13.52426         0.196163      0.025392      0.967274
O       5.61145      2.00771      4.95205         0.314484      0.002250     -0.581182
O       5.79354     13.38910      5.01176        -0.162653      0.666387      0.298876
O       5.67007      2.07280      9.27701         0.249743      0.055162     -0.235637
O       5.69167     13.54744      9.28895        -0.112750     -0.072555      0.072766
O       5.71346      5.94564      0.60456        -0.125206     -0.357244      0.084220
O       5.79256      5.82745     13.53229         0.168791      0.012227     -0.147335
O       5.54729      5.84175      4.93035         0.357087     -0.062447      0.037386
O       5.96644      5.88626      9.40976        -0.669312     -0.290331     -0.521775
O       5.91956      9.58781      0.55902        -0.524317      0.116471      0.231032
O       5.75569      9.66891     13.67450        -0.039532      0.109863     -1.754001
O       5.68448      9.55243      4.97516         0.488476      0.007485     -1.677269
O       5.78679      9.64093      9.22361        -0.016195     -0.246625     -0.261066
O       9.54258      1.91683      0.51266         0.026303      0.262540      0.566061
O       9.47426      2.03976     13.59558         0.193008     -0.206753     -0.657955
O       9.65758     13.50013      0.62960        -0.328754      0.063793      0.232446
O       9.61594     13.54077     13.65521         0.262495     -0.001149      0.285878
O       9.55376      2.14907      5.07848        -0.065988     -0.013990     -1.379737
O       9.68184     13.59261      5.01776        -0.453554      0.096532     -1.221888
O       9.66104      2.05523      9.28976        -0.057085     -0.101633     -0.948293
O       9.54374     13.85922      9.23963         0.497005     -1.194134      0.038989
O       9.49732      5.88116      0.56780         0.138212     -0.281384     -0.309105
O       9.55123      5.75401     13.64214        -0.144779      0.528838     -1.183934
O       9.60182      5.92884      4.90070        -0.337570     -0.360152      1.129605
O       9.67671      5.84891      9.37958        -0.158183      0.235074     -0.671691
O       9.59180      9.75742      0.54897        -0.181304      0.045202      0.391261
O       9.69628      9.71594     13.72028         0.032510      0.115949     -1.472528
O       9.78715      9.55319      4.94629        -0.737870      0.455496     -0.283781
O       9.56419      9.66822      9.20076         0.317391      0.076314     -1.181167
O       3.81426      1.76645      2.50407        -0.171456      0.402269      0.491486
O       3.80687      2.02264     15.76112         0.931725     -0.565743      0.646596
O       3.88981     13.39980      2.80442        -0.698817      1.197162     -0.260819
O       3.84779     13.52024     15.90590         0.421321     -0.027329     -0.536211
O      15.35592      2.12543      2.77057         0.074942     -0.513102     -0.431055
O      15.34230      2.16416     15.70267        -0.142704     -0.313995      0.069325
O       0.04229     13.35939      2.59114        -0.892710      0.637982      0.523742
O      15.35162     13.63104     15.80677         0.246856     -0.216019     -0.011118
O       3.81339      2.06735      7.17434         0.562167     -0.136288      0.054909
O       3.75771     13.48907      7.21590         1.193688      0.085864     -0.034520
O      15.32516      2.09649      7.06107         0.394963      0.185944      0.593557
O      15.34945     13.61173      7.05169        -0.510106      0.691366      0.366237
O       3.84944      2.01894     11.49000        -0.413692      0.152277     -0.251352
O       3.78512     13.36401     11.53812         0.834556     -0.350050     -0.468561
O       0.02451      1.93656     11.58986        -0.159182     -0.765505     -0.112394
O       0.07463     13.47894     11.46864        -1.147550     -0.058759      0.169155
O       3.73721      6.01732      2.72628         0.584302     -1.259761     -0.072862
O       3.86780      5.78048     15.85467         0.348186      0.039891     -0.175762
O       0.05137      5.70462      2.71921        -0.191169     -0.509644     -0.105782
O      15.34321      5.94522     15.83730        -0.286874      0.018910     -0.185371
O       3.80077      5.70053      7.20954         0.406394      0.675778     -0.158310
O      15.30860      5.90325      7.02444        -0.204417      0.121018      0.312273
O       3.85693      5.88397     11.36695        -0.939622     -0.807614      0.089149
O       0.01195      5.70488     11.57886         0.516232      0.435238     -0.537091
O       3.85192      9.65519      2.67311        -0.429384     -0.120249     -0.112460
O       3.86618      9.62551     15.77454        -1.107763     -0.268106     -0.089996
O      15.35271      9.87998      2.89835         0.760697     -0.242694     -0.353958
O      15.33919      9.88831     15.80652        -0.333291     -0.239110     -0.292608
O       3.79567      9.54701      6.99696        -0.490580      0.029837      0.543793
O      15.30305      9.93516      7.06278        -0.036175     -0.784493      0.033557
O       3.83232      9.75364     11.37682         0.676051     -0.233210      0.114482
O      15.31095      9.67048     11.46900         0.387471      0.317478     -0.227387
O       7.61435      2.08533      2.72614         0.382644     -0.409109      0.502778
O       7.63784      2.01165     15.73505        -0.638533     -0.095728     -0.131713
O       7.64823     13.48995      2.76691         0.774988      0.316468      0.096622
O       7.70970     13.45821     15.72705        -1.406818     -0.355126      0.262135
O       7.62322      2.15346      7.26853         0.097355     -0.755234     -0.803144
O       7.62723     13.47495      7.20682         0.087076      0.472553     -0.473975
O       7.68545      1.90432     11.44908        -0.032985      0.256174     -0.155190
O       7.70910     13.64316     11.42185        -0.172835      0.035278     -0.008604
O       7.60577      5.84035      2.83182         0.461326      0.206672     -0.071097
O       7.59056      5.83627     15.95046         0.825994      0.072756     -1.063624
O       7.68257      5.77330      7.11665        -0.159512      0.806369     -0.397732
O       7.72586      5.93201     11.41986        -0.555774     -0.084904      0.836234
O       7.71544      9.60448      2.77162        -0.207348      0.149978     -0.078024
O       7.67902      9.66112     15.69444         0.431969      0.495888      0.471398
O       7.66146      9.74191      7.08342         0.615899     -0.641319     -0.399729
O       7.77853      9.69300     11.50077        -1.490569     -0.495271     -0.635520
O      11.55206      2.00547      2.68634        -1.077133      0.487001     -0.385537
O      11.43479      1.98082     15.68746         0.642913      0.246571      0.452988
O      11.45559     13.58925      2.81193         0.408656      0.051592     -0.267283
O      11.56547     13.58719     15.77443        -0.217863      0.674747      0.256397
O      11.55521      2.09069      7.18085        -0.846116     -0.177808      0.097565
O      11.51449     13.60359      7.02642        -0.268092      0.219043      0.718783
O      11.53001      2.23791     11.45207         0.434493     -0.373778     -0.057423
O      11.59803     13.49830     11.45462        -0.902224     -0.045014     -0.155383
O      11.43897      5.83216      2.67822         0.874291     -0.419718      0.105161
O      11.44892      5.86455     15.80088         0.426447     -0.111801      0.193886
O      11.55964      5.97686      7.01210        -0.494546     -0.364784      0.261455
O      11.49027      5.83225     11.53745         0.738443      0.144818     -0.016769
O      11.54675      9.85924      2.68059         0.036268     -0.640080      0.062598
O      11.51616      9.79892     15.93261         0.967636     -0.905345     -0.458776
O      11.50673      9.77723      7.09657        -0.319713     -0.093631      0.155678
O      11.54504      9.76716     11.41972        -0.638972      0.009062     -0.144333
O       2.07675      3.80211      2.69675        -0.411785      0.018801     -0.069712
O       1.99830      3.85553     15.74478        -0.478942      0.209551      0.370395
O       1.84756     15.31176      2.78602         0.449931      0.654050     -0.098971
O       1.95327     15.32890     15.85958        -0.466833      0.407638     -0.100265
O      13.47138      3.94408      2.71839        -0.540057     -0.290404     -0.169350
O      13.40110      3.95001     15.70559        -0.379127      0.635780      0.363102
O      13.35279     15.53593      2.74846         0.768243     -0.571973     -0.609598
O      13.48869     15.55456     15.89541        -0.371057     -0.406426     -0.598915
O       1.93976      3.85372      7.13115        -0.307872     -0.664213      0.516741
O       1.98437      0.06048      7.11109        -0.447730     -0.001264      0.679255
O      13.46230      4.00712      7.10157        -0.154319      0.483283     -0.103668
O      13.47047      0.20185      7.16906        -0.102100     -0.149214      0.262071
O       1.90310      3.82427     11.53223         0.119214      0.917775     -0.528181
O       2.04075     15.25206     11.51111        -0.588638      1.389718     -0.358361
O      13.55756      4.01977     11.60200        -0.591181     -0.051953     -0.316579
O      13.44148     15.46640     11.41288        -0.161624      0.546504      0.007047
O       1.86501      7.69197      2.66373        -0.387430      0.443144     -0.023726
O       1.81150      7.71466     15.78975         0.643165      0.777551      0.255924
O      13.49125      7.79844      2.65124        -0.244313      0.441898      0.249543
O      13.43809      7.83166     15.74830        -0.253748      0.709866      0.272195
O       1.79535      7.70239      7.14072         0.368048     -0.446448     -0.339039
O      13.42828      7.86907      6.95550        -0.024741     -0.920289      0.331685
O       1.95759      7.70845     11.43272        -0.048661     -0.693502      0.470954
O      13.51984      7.79449     11.45544        -1.029260      0.098579      0.012919
O       1.95847     11.62125      2.84824        -0.164262     -0.735545     -0.329810
O       1.94319     11.49494     15.90048         0.080908      0.220030     -0.485950
O      13.50171     11.67330      2.78654        -0.584910      1.263429     -0.073995
O      13.32721     11.68764     15.67110         0.547571     -0.781373      0.454754
O       1.91415     11.48781      7.09387         0.098139      0.483980      0.058378
O      13.47545     11.81112      7.07919        -0.872148     -1.266282      0.205381
O       1.74845     11.48417     11.29905         0.411457     -0.454245      0.590455
O      13.59713     11.64682     11.53452        -0.416898      0.375555     -0.742387
O       5.65132      3.94862      2.75272        -0.169342     -1.220238     -0.089070
O       5.77988      3.86570     15.86260        -0.290113      0.229547     -0.586856
O       5.74282     15.39555      2.94647         0.273043      0.864454     -0.660202
O       5.77914     15.44643     15.68511        -0.433477     -0.578907     -0.199050
O       5.87043      3.97824      7.01439        -0.951749     -0.697213      0.281978
O       5.77207     15.42123      7.13475        -0.415218      0.863021     -0.412304
O       5.77877      3.89868     11.59935         0.191671      0.340417     -0.736125
O       5.58339      0.11068     11.35601         0.931664     -0.529168      0.062359
O       5.64517      7.72412      2.74392         0.906793      0.639614      0.304352
O       5.71749      7.70149     15.72079         0.080225      0.216118      0.108238
O       5.70836      7.74173      7.08951         0.542320     -1.129145      0.251599
O       5.67354      7.75538     11.54189         0.796186      1.391854     -0.173910
O       5.68540     11.63242      2.77679         0.965701     -1.087674     -0.136106
O       5.60970     11.58583     15.72248         0.704519      0.497023      0.064818
O       5.69147     11.47640      7.02336        -0.019278      1.655495      0.750162
O       5.89385     11.67492     11.29592        -0.024616     -2.239833      0.519942
O       9.56221      3.91064      2.63445        -0.070300     -0.506447      0.352052
O       9.46592      3.91941     15.77106         0.582240      0.425227      0.209717
O       9.54201     15.50132      2.84106        -0.370421      0.055756     -0.334344
O       9.45787     15.44112     15.80190         0.782517     -0.148459     -0.129268
O       9.60984      3.98546      7.18540         0.292952      0.784979     -0.095677
O       9.52795      0.17283      7.19152         0.223239      0.033683     -0.449498
O       9.53458      3.88748     11.38016        -0.511644      1.615444      0.644976
O       9.74348      0.14797     11.44397        -0.048504     -0.696179      0.447286
O       9.79530      7.76850      2.66018        -1.141858      0.374524      0.061072
O       9.63367      7.76360     15.92481        -0.112299      0.227522     -0.751615
O       9.58231      7.78444      7.06868         0.030494      0.091573      0.236426
O       9.62046      7.87890     11.41749         0.352332     -0.916889      0.337192
O       9.61840     11.60323      2.89053        -0.491696      0.571841     -0.456068
O       9.76378     11.66076     15.87307        -0.996307     -0.706568     -0.012054
O       9.56580     11.64688      7.10859         0.377506     -0.060454     -0.190329
O       9.59311     11.67179     11.41702         0.067724     -0.618423     -0.319613
