  # total energy = -7881.62315522 
CRSYTAL
PRIMVEC
    15.3600000000000000    0.2300000000000000    0.0000000000000000
     0.0000000000000000   15.3600000000000000    0.0000000000000000
     0.0000000000000000    0.0000000000000000    17.440000000000000
PRESSURE
0.917332 0.744577 -1.62831 0.001249 0.058333 -1.55992
PRIMCOORD
320 1
Pb       3.83464      3.98053      4.18773         0.272611     -0.457275      0.388804
Pb       3.77794      3.84488      0.08257         0.305420      0.171975     -0.703818
Pb       3.87839     15.34409      4.35071         0.016876     -0.016150     -0.359427
Pb       3.85199     15.39133      0.10153         0.021092     -0.045959     -0.543124
Pb       0.12339      3.94580      4.38493        -0.240050     -0.330874     -0.583453
Pb       0.05624      3.76664      0.10771        -0.186810      0.224361     -0.691699
Pb      15.26235     15.58794      4.41816         0.153859     -0.018395     -0.889663
Pb      15.29217      0.24798      0.00768         0.119122     -0.325639     -0.102365
Pb       3.78356      3.72872      8.47032         0.641159      0.312731      1.411025
Pb       3.80044     15.38606      8.58152         0.307593     -0.312795     -0.048973
Pb      15.35877      4.01850      8.59368         0.001147     -0.116569     -0.263983
Pb       0.02425     15.17970      8.64006         0.058024      0.101065     -0.002692
Pb       3.87072      3.77129     13.12498         0.059938      0.049504     -0.713668
Pb       3.72870      0.11587     13.14992        -0.051117     -0.076260     -0.735407
Pb      15.30752      3.99980     12.96833        -0.192941     -0.167450      0.336479
Pb      15.27962      0.24953     13.01157         0.382164      0.121866     -0.208448
Pb       3.83726      7.76994      4.37291         0.162390      0.295011     -0.728036
Pb       3.76429      7.68141     17.39407         0.061021      0.039489     -0.722696
Pb      15.24068      7.92922      4.43553         0.225381      0.167235     -0.761717
Pb      15.28829      7.94801     17.40555         0.181989     -0.347534     -0.625441
Pb       3.86244      7.62004      8.69461        -0.006990      0.722700      0.765752
Pb      15.32671      7.80197      8.74530         0.756526      0.411853     -0.387970
Pb       3.71375      7.57234     13.04191         0.186356      0.199584     -0.109098
Pb       0.00031      7.62172     13.05508        -0.027307     -0.121916     -0.107342
Pb       3.82786     11.44863      4.24155        -0.041286     -0.085181      0.140283
Pb       3.79143     11.55252     17.35916        -0.040893      0.129025     -0.377332
Pb      15.30308     11.67529      4.37305         0.501311      0.001009     -0.641704
Pb      15.31469     11.83702     17.43209         0.236403      0.126009      0.116889
Pb       3.90148     11.44849      8.70779        -0.552630      0.257459     -0.165250
Pb       0.05448     11.45669      8.65247         0.145904     -0.082664     -0.089429
Pb       3.75324     11.51054     13.05903        -0.051930      0.250797     -0.377838
Pb      15.31487     11.72671     12.99489         0.251007      0.392365     -0.066456
Pb       7.64471      3.98263      4.25818         0.500834     -0.875616      0.782641
Pb       7.64193      3.97983     17.38393         0.492413     -0.116420     -0.528414
Pb       7.69250     15.37158      4.29447         0.247533      0.041422     -0.053883
Pb       7.76642      0.22094     17.42971         0.128516     -0.196231      0.040519
Pb       7.52232      3.85595      8.59760         0.374657     -0.228904      0.629781
Pb       7.65677     15.34964      8.69750        -0.059667      0.036398     -0.766628
Pb       7.60147      3.92694     13.00207         0.250315      0.158950     -0.236540
Pb       7.64929     15.44204     13.11633         0.163639     -0.113561     -0.284349
Pb       7.69686      7.73085      4.32851        -0.085025      0.329047     -0.166163
Pb       7.58875      7.78764     17.39329         0.345565     -0.122458     -0.773625
Pb       7.66681      7.79825      8.79309        -0.030143     -0.156883      0.254895
Pb       7.69025      7.90361     13.08723        -0.408587     -0.491832     -0.006488
Pb       7.62412     11.60745      4.37453         0.348640      0.156116     -0.492301
Pb       7.58450     11.56079     17.32189         0.201688      0.441447     -0.224252
Pb       7.63238     11.54983      8.82580         0.257443      0.136012     -0.858708
Pb       7.66254     11.79401     13.21458        -0.126667      0.141238     -0.351322
Pb      11.42914      4.08203      4.48109        -0.389608     -0.062624     -0.542137
Pb      11.58783      4.08954      0.08100        -0.312296     -0.194292     -0.651675
Pb      11.58627      0.18782      4.40351        -0.198090     -0.236957     -0.571175
Pb      11.48877      0.27546      0.00399         0.043283     -0.415256     -0.147937
Pb      11.46371      3.81003      8.67212        -0.242202      0.487961      0.323745
Pb      11.44043      0.17664      8.66621         0.246906     -0.530170     -0.326083
Pb      11.50393      4.07797     13.08330        -0.165249      0.012005     -0.192808
Pb      11.53984      0.28737     12.91736        -0.435850     -0.595902      0.594363
Pb      11.43318      7.90467      4.38873         0.210327     -0.492746     -0.716277
Pb      11.48743      7.85611     17.35302        -0.199711      0.406986     -0.082211
Pb      11.60732      7.79901      8.73044        -0.553600      0.477360      0.281984
Pb      11.51369      7.90270     13.04719         0.011518      0.133522     -0.251820
Pb      11.53970     11.45070      4.30371        -0.330663      1.333360     -0.326429
Pb      11.45708     11.80798     17.21631        -0.093398      0.108425      0.801816
Pb      11.49496     11.66080      8.74225         0.119100      0.086952     -0.667919
Pb      11.50891     11.82681     12.94535        -0.145760     -0.160648      0.252001
Ti       1.97063      1.86869      2.31789        -0.761818     -0.312594     -0.309616
Ti       1.94762      1.88479     15.48491        -0.068001     -0.167692     -0.848156
Ti       2.00750     13.43656      2.29596        -1.613300     -0.428288     -0.224000
Ti       1.87260     13.49305     15.40790         1.303098     -0.656090     -0.855773
Ti      13.40571      2.14424      2.32928         0.205973     -0.663002      0.974730
Ti      13.47988      2.17555     15.43473        -0.410226     -0.235945     -0.473746
Ti      13.47900     13.66564      2.34176        -0.544725     -0.344566     -0.350735
Ti      13.43002     13.64315     15.32807        -0.404019      1.083612     -0.733310
Ti       1.98571      1.94476      6.53322        -0.649081     -0.786377     -0.428923
Ti       1.96853     13.40227      6.60989         0.370195     -0.046950      0.583110
Ti      13.44797      2.14453      6.59068         0.479073     -0.860027     -0.969245
Ti      13.48013     13.61005      6.58572        -0.824401     -0.642593      0.439061
Ti       1.86442      1.99913     10.94921         1.162439     -1.663878     -0.302884
Ti       1.96092     13.46204     11.00715        -1.050296      0.448599     -1.190780
Ti      13.35375      2.21320     10.97658         0.955944     -1.077075     -0.230230
Ti      13.48688     13.70760     11.03256        -0.259087      0.604200     -0.707526
Ti       1.94607      5.82068      2.27914        -0.281048      0.159971      0.771431
Ti       1.87071      5.68876     15.39405        -0.543791      0.791384      0.620173
Ti      13.42638      5.99518      2.35335         0.472180      0.326424      0.095653
Ti      13.32647      5.97423     15.34063         0.972151     -0.185902      1.759589
Ti       2.03425      5.80910      6.64952        -1.435212     -0.053685      0.016384
Ti      13.31695      5.92935      6.75203         1.395757      0.158939     -0.055816
Ti       1.84097      5.63374     10.93752         1.198119      1.480552      1.663069
Ti      13.44436      5.97616     10.91459        -1.003852     -0.103305      0.963324
Ti       1.89154      9.55152      2.22210        -0.227020      0.417890      1.065297
Ti       1.87459      9.63318     15.39764        -0.091030     -0.440289      0.988920
Ti      13.43224      9.84696      2.20754        -0.002733     -0.196739      0.350730
Ti      13.45670      9.81923     15.37722        -0.803070      0.093459     -0.396174
Ti       2.01957      9.56991      6.66954        -1.288574      0.939533     -0.124967
Ti      13.46339      9.75430      6.77642         0.862396      1.051338      1.207079
Ti       1.82339      9.58098     11.04738         0.920470      0.258800     -1.951928
Ti      13.42950      9.86805     11.02466        -1.113822     -0.726926     -0.979366
Ti       5.82219      1.99710      2.31902        -0.115864     -0.961450      0.944929
Ti       5.77578      1.94382     15.40949         0.143865      0.170976      0.227587
Ti       5.79975     13.53472      2.29227         0.185701     -0.839244      0.923758
Ti       5.67010     13.59841     15.34466         0.286969     -0.551757      0.293947
Ti       5.80146      1.91295      6.51914         0.402533     -0.266233     -0.625436
Ti       5.76948     13.41962      6.58046         0.848302      0.471195      0.788057
Ti       5.80312      1.90661     11.03202        -1.094997      0.146082     -0.169478
Ti       5.73197     13.49940     10.96532        -0.239589      0.365188      1.097153
Ti       5.81761      5.82696      2.29725        -0.555583      0.417930      1.749131
Ti       5.74316      5.71610     15.41634        -0.421745      0.867030     -0.647763
Ti       5.80783      5.81404      6.70675        -0.873608     -0.486983     -0.586306
Ti       5.68464      5.82691     11.10718         0.490737     -0.785894     -0.574114
Ti       5.79830      9.66013      2.27154        -0.434953      0.014906      0.184847
Ti       5.71040      9.70017     15.33623        -0.454982     -0.631896     -0.469870
Ti       5.86133      9.59594      6.70027        -1.470048      1.102665     -1.154416
Ti       5.75281      9.67789     11.12924        -1.280274     -0.351050     -0.402344
Ti       9.64156      2.01010      2.41425         0.070031      0.175792     -1.073517
Ti       9.66126      2.10596     15.40736        -0.475255      0.582766     -0.767576
Ti       9.62089     13.57791      2.26451         0.564829     -0.527868     -0.669633
Ti       9.53802     13.66535     15.34860        -0.111279     -0.217216     -0.268729
Ti       9.61923      2.03709      6.63307        -0.356837     -0.209473     -1.260083
Ti       9.66961     13.49997      6.64660        -0.534049     -0.024424     -1.486444
Ti       9.57340      2.06483     11.08312        -0.556494      0.405160     -0.792170
Ti       9.57079     13.57416     10.98166         0.136536      0.768355      0.679365
Ti       9.65455      5.95716      2.32554        -0.229969     -0.293370      0.100104
Ti       9.58119      5.92378     15.30955        -0.687580     -0.356273      0.553056
Ti       9.54316      5.87394      6.81543         0.710044     -0.477634     -2.012778
Ti       9.56089      5.92899     11.07145        -0.316484     -1.413786     -0.718059
Ti       9.51166      9.81920      2.19183         0.699658      0.065568      0.104947
Ti       9.57294      9.80387     15.29753        -0.248140     -0.618207     -0.391455
Ti       9.62590      9.67566      6.65188        -0.192321      1.161708      0.047989
Ti       9.51542      9.76275     11.12116         0.732039      0.436905     -0.288204
O       1.79552      1.82192      0.48374         0.463267      0.630610      0.737575
O       1.95424      1.90038     13.67050        -0.304730      0.057286      0.674579
O       1.88568     13.41563      0.47464         0.501464     -0.228195      1.056869
O       2.00678     13.51486     13.61025        -0.417044     -0.259071     -0.181352
O      13.33928      2.17634      0.56445         0.387726     -0.156022     -1.146247
O      13.58118      2.21109     13.66452        -0.454302     -0.103649     -0.077307
O      13.48067     13.58196      0.58012         0.423354      0.462568     -0.771822
O      13.38259     13.64996     13.48291         0.334176     -0.139130      1.318908
O       1.98412      1.90382      4.74121        -0.000977      0.092964      0.388377
O       1.95840     13.42871      4.86499         0.028832     -0.062287     -0.416218
O      13.39021      2.07888      4.76916         0.029892      0.165310      0.985654
O      13.36098     13.44206      4.80378         0.183277      0.543254      0.537332
O       1.96755      2.13343      9.15894        -0.235234     -0.828399      0.356928
O       1.92662     13.53546      9.17296        -0.354805      0.167386      0.422152
O      13.37083      2.22150      9.21933        -0.002112     -0.293383     -0.611500
O      13.56996     13.81991      9.23153        -0.328604     -0.176427      0.689789
O       1.88484      5.66684      0.53537        -0.291720      0.278781     -0.464411
O       1.89545      5.72265     13.62648         0.164868     -0.013677      0.161818
O      13.39641      6.01348      0.60152         0.087404     -0.092392     -0.663495
O      13.28292      5.96308     13.64414         0.076086     -0.171043     -1.858053
O       2.07927      5.71204      4.85766        -0.228876      0.249152      0.502800
O      13.35685      6.16620      4.98440         0.067151     -0.530006      0.208048
O       1.86802      5.72071      9.23597         0.087230     -0.032657     -1.486886
O      13.49398      5.94241      9.14954        -0.234803      0.002902     -0.035919
O       1.85513      9.60309      0.45616         0.030954     -0.187073      0.048610
O       1.90245      9.59262     13.66955        -0.404247      0.239110     -1.830398
O      13.32014      9.74458      0.46313         0.633583      0.088254     -0.477207
O      13.31472      9.95855     13.58531         0.270052     -0.292587      0.731936
O       1.99564      9.65776      4.86113         0.183928     -0.686318      1.155316
O      13.54345      9.63502      5.04221        -0.679266      0.093218     -1.255122
O       1.86682      9.57867      9.20921        -0.225821      0.115245      1.542597
O      13.44152      9.84199      9.17965         0.006583     -0.178299      1.759956
O       5.84240      1.98747      0.58153         0.232086      0.071176     -0.972067
O       5.72615      1.89807     13.62815        -0.102049      0.213261      0.362572
O       5.66064     13.43517      0.55632         0.333295      0.057558     -0.679588
O       5.65037     13.64390     13.60095        -0.079992     -0.197704     -0.992645
O       5.71378      1.99429      4.74413        -0.053269     -0.299382      0.259921
O       5.65453     13.38892      4.84737         0.470680      0.159915     -1.089534
O       5.83351      1.79827      9.25141         0.108504      0.392424     -0.021915
O       5.90529     13.51828      9.21961        -0.104201      0.108472     -0.396504
O       5.87941      5.78405      0.59868         0.241915      0.116155     -1.364159
O       5.53669      5.69003     13.64565         0.193392     -0.034373     -0.265633
O       5.66097      5.78646      4.94795         0.124068     -0.004242     -0.024894
O       5.75291      5.93302      9.32925         0.101504     -0.224555     -0.518041
O       5.81330      9.61117      0.47452         0.166230      0.143219     -0.191146
O       5.65841      9.66026     13.56800        -0.132977     -0.020836     -0.246690
O       5.65621      9.68725      4.89784         0.446904     -0.409246      0.971854
O       5.92347      9.56625      9.30690        -0.350279      0.377890      0.339031
O       9.69015      1.84214      0.58038        -0.518272      0.951858      0.208271
O       9.60961      2.07574     13.62469         0.087810      0.107444     -0.000289
O       9.59588     13.55142      0.43483        -0.453605      0.143534      0.261462
O       9.49039     13.68778     13.57320         0.480574     -0.348198     -0.328507
O       9.73809      2.07499      4.84050         0.145320     -0.309607      0.095566
O       9.74771     13.41168      4.81845         0.005612      0.327336      0.975547
O       9.59296      2.07540      9.28338         0.105152     -0.160531     -0.355287
O       9.55540     13.63382      9.22133        -0.074372     -0.107939     -0.663728
O       9.55466      6.01808      0.57194         0.082724     -0.310786      0.203121
O       9.67408      5.77241     13.57020        -0.163737      0.406548     -1.497152
O       9.74270      5.82257      4.96537        -0.394002      0.641813      0.780907
O       9.49823      5.68987      9.31966         0.050278      0.943084     -1.040434
O       9.43943      9.77937      0.41453        -0.150890     -0.160401     -0.154434
O       9.60382      9.83074     13.48690        -0.370886     -0.287906      0.257997
O       9.61372      9.70344      4.85769         0.367741     -0.025505      0.625798
O       9.44000      9.77624      9.34414        -0.039338     -0.062608     -0.263229
O       3.90021      1.78782      2.54311        -0.607806      0.575446      0.220286
O       3.89514      1.85516     15.77988        -0.689701      0.252642      0.423453
O       3.88346     13.45660      2.71958        -0.067609     -0.390247     -0.214729
O       3.80568     13.47361     15.64118         0.447590     -0.024375      1.187671
O       0.01249      1.70085      2.73228         0.603794      0.812024     -0.177940
O      15.34042      2.18115     15.80707         0.484446      0.173513      0.516401
O       0.02983     13.31948      2.77345         0.894167      1.020664     -0.039798
O       0.09177     13.44017     15.72662        -2.459759     -0.353311      0.291411
O       3.90782      1.93928      6.94690        -1.299999     -0.455045      0.073841
O       3.94640     13.46543      6.96877        -1.672021      0.276857      0.596040
O      15.35400      2.28132      6.86533         0.692416     -0.483971      0.139218
O       0.00488     13.40039      7.11213         0.087130      0.138151     -0.729429
O       3.82410      2.04765     11.40097        -1.003494     -0.263554      0.107684
O       3.73610     13.28253     11.18147         1.829155      0.360436      0.630149
O      15.28585      2.09143     11.35170         0.670419      0.292114      0.202155
O      15.32194     13.79008     11.44161        -0.090312     -0.313335      0.100982
O       3.88686      5.89388      2.56522        -0.048193     -0.678174      0.334632
O       3.83525      5.72299     15.99425        -0.822606      0.204793     -0.287504
O       0.02267      5.79446      2.80783        -0.226920     -0.455862     -0.058280
O      15.30565      5.98426     15.68991         0.318075     -0.505240      0.442393
O       3.89392      5.91201      7.18327        -0.517197     -0.753743     -0.670085
O       0.03705      5.65115      7.07781         0.077296      0.399040     -0.417586
O       3.77702      5.66781     11.37173        -0.993517      0.418631      0.376582
O      15.30547      6.04751     11.35839        -0.250893     -0.301566      0.227368
O       3.85474      9.54097      2.61295         0.103866      0.192997     -0.008773
O       3.72682      9.54020     15.65712         1.966678      0.094709      0.842214
O      15.34526      9.73224      2.75000        -0.245509     -0.258701     -0.285482
O      15.29382      9.87194     15.73152        -0.491203     -0.154653      0.161772
O       3.84566      9.64462      7.12079         0.884785     -0.392503      0.151423
O       0.10581      9.69157      7.06119        -0.815221     -0.778029     -0.011559
O       3.68119      9.73285     11.31086         1.117218     -0.271868      0.540213
O      15.23151      9.72334     11.52980         0.100146      0.462690     -0.177128
O       7.73293      1.93481      2.81365        -0.352546      0.892010     -0.257809
O       7.69735      2.09243     15.71418        -0.020159     -0.224797      0.658964
O       7.67362     13.43098      2.81082        -0.249820      0.394866     -0.232270
O       7.60602     13.57120     15.44632         0.704637     -0.263028      1.092514
O       7.70563      2.13554      6.82880         0.176467     -0.415950      0.583004
O       7.76618     13.51200      6.91935        -0.485633      0.145377      0.407455
O       7.66276      1.92234     11.48543        -0.065407     -0.078347      0.028214
O       7.64970     13.55962     11.48619        -0.361465      0.134278     -0.290370
O       7.72383      5.76395      2.86459        -0.321418      0.569128     -0.804223
O       7.65585      5.74175     15.65668        -0.073532     -0.159348      0.527754
O       7.65478      5.75370      6.98572         0.213995     -0.013754      0.466189
O       7.55411      5.87814     11.38421         0.955679      0.123726      0.920664
O       7.72190      9.70649      2.71482        -1.152289     -0.254504      0.110418
O       7.58914      9.75405     15.51941         0.600422     -0.255994      0.797704
O       7.67189      9.75736      6.95613         0.798943     -0.223292      0.473582
O       7.55246      9.76624     11.47291         1.257649     -0.381153      0.545607
O      11.50247      1.89793      2.64478         0.423838      0.343116      0.446271
O      11.49749      2.11798     15.76088         0.987928     -0.397113      0.371865
O      11.51365     13.50217      2.48035        -0.145634      0.144071      0.797299
O      11.50324     13.68555     15.63955         0.745635     -0.469742      0.214007
O      11.59671      2.07389      7.04196        -0.772233     -0.192895      0.248755
O      11.54952     13.55045      7.14527         0.431073      0.243685      0.075716
O      11.48431      2.22810     11.41616        -0.511572     -0.321271      0.123637
O      11.48551     13.62810     11.36810         0.385524      0.084719     -0.074410
O      11.56701      5.94601      2.72126        -0.977695      0.106576      0.221714
O      11.43204      6.05639     15.78075         0.925390     -0.137466      0.392818
O      11.46727      6.01280      7.07524         0.617590     -0.060476      0.556259
O      11.53292      5.84591     11.29392        -0.658171      0.229081      0.342591
O      11.50658      9.83364      2.54570        -0.213178     -0.308847      0.596755
O      11.39519      9.74854     15.74976         1.154249     -0.084772      0.006815
O      11.51347      9.74575      7.16482        -0.174832     -0.437267     -0.310943
O      11.41166      9.71434     11.41793         0.948843      0.535145     -0.177047
O       1.94391      3.83457      2.62100        -0.056972     -0.233576      0.241521
O       1.99400      3.77933     15.80512        -0.335490      0.398314      0.442085
O       2.09553     15.29560      2.54964        -0.661349      0.222807      0.468732
O       1.92950     15.31932     15.85180        -0.066039      1.307562      0.148434
O      13.42262      3.97021      2.58309         0.293798      1.383221      0.660904
O      13.32239      4.08924     15.76068         0.071255     -0.310703      0.529011
O      13.43602     15.55432      2.70599         0.141568     -0.627705      0.501262
O      13.53747     15.55019     15.79601        -0.307303      0.056869     -0.162680
O       2.00598      3.84938      6.92875         0.160515      0.247424     -0.085148
O       1.96594     15.35968      6.91935        -0.185039      0.738711      0.284511
O      13.38867      4.00123      7.03876        -0.273384      1.056218     -0.248046
O      13.42410     15.49830      6.79124         0.299370      0.570793      0.384631
O       1.75529      3.82129     11.33960        -0.071491      0.178245      0.482666
O       1.92058     15.37991     11.37538         0.125033      0.554840      0.071774
O      13.38816      4.01719     11.41194         0.684322      1.535365      0.168672
O      13.32710      0.29632     11.42280         0.215773     -0.459815     -0.044015
O       1.95742      7.66060      2.70578        -0.163906      0.113779     -0.136635
O       1.78739      7.67706     15.82446         0.471551     -0.580776      0.114417
O      13.39127      7.90649      2.69613         0.168348      0.032572      0.319520
O      13.41060      7.88965     15.69027        -0.014547      0.909619      0.350847
O       1.89748      7.69713      7.15876         0.167268     -0.731793     -0.686975
O      13.49571      7.88896      7.29849        -0.255504     -0.774759     -0.678778
O       1.80698      7.69812     11.46262         0.346299     -0.699344      0.025773
O      13.26184      7.86986     11.46959         0.740610     -0.064125     -0.566924
O       1.84595     11.37414      2.78043         0.725554      1.247884     -0.675186
O       1.96093     11.49316     15.85718        -0.279832      0.597548     -0.265460
O      13.59429     11.75222      2.61399        -0.647294     -1.852551      0.478925
O      13.48624     11.82273     15.89653        -0.394323     -0.827885     -0.820930
O       1.94775     11.56227      7.11590         0.448614     -0.275099     -0.169394
O      13.46609     11.65402      7.05812        -0.318832      0.639887      0.112075
O       1.76030     11.54758     11.31921        -0.684704     -0.502065      0.750709
O      13.42646     11.78237     11.33323         0.012831     -0.862969      0.098579
O       5.70710      3.85968      2.69050         0.409163      1.114789     -0.104821
O       5.72642      3.88146     15.89655        -0.115179     -1.149113      0.217607
O       5.93690     15.39949      2.66253        -0.721001     -0.251575      0.106338
O       5.80287     15.41698     15.96837        -0.159557      0.542950     -0.423688
O       5.67854      3.77363      7.03781         0.291556      1.736186      0.055177
O       5.78968     15.39395      6.92941         0.251223      0.196932      0.237746
O       5.71440      3.80023     11.41892         0.523520      0.720259      0.274711
O       5.56383     15.38672     11.42201         0.387771     -0.560821     -0.029766
O       5.81189      7.74801      2.83126         0.418915     -0.462280     -0.467416
O       5.76968      7.57322     15.79450        -0.159518      1.872117      0.213081
O       5.83680      7.71415      7.11775        -0.051851      0.177684     -0.155533
O       5.66353      7.69992     11.57010        -0.202184      1.064990     -0.086039
O       5.81164     11.50241      2.65759        -0.326328      0.396999      0.036272
O       5.76990     11.60151     15.62379        -0.654061     -0.294527      0.538836
O       5.74824     11.59179      7.06287         0.321709     -1.190376      0.522949
O       5.73137     11.60379     11.40938        -0.063344     -0.169443      0.098884
O       9.69756      3.94720      2.75028        -0.136563      0.439280     -0.199147
O       9.69045      4.06426     15.76221        -0.116945     -1.223058      0.656951
O       9.51556     15.44204      2.59615         0.081620     -0.309169      0.881813
O       9.60673      0.14878     15.78899        -0.312792      0.554115      0.095960
O       9.69775      3.94916      6.88740         0.090182      0.312475      1.042026
O       9.64167      0.15373      6.98546         0.161325     -0.194952      0.320928
O       9.37222      3.97769     11.30491         0.516788     -0.369980      1.088275
O       9.60933     15.48406     11.41391         0.087455      0.561666      0.015222
O       9.42506      7.83918      2.71963         1.141809     -0.532316     -0.027841
O       9.43047      7.78241     15.63229         0.044633      1.242501      0.287841
O       9.53810      7.80810      7.11377        -0.036247     -0.064446      0.062201
O       9.47553      7.82228     11.36379         0.044567      0.037844      0.464909
O       9.47081     11.66791      2.55521         0.506101     -0.866167      0.419137
O       9.60581     11.68323     15.61898        -0.462602      0.168954      0.292747
O       9.64590     11.62254      6.99939         0.101396     -0.612436      0.578903
O       9.61512     11.71849     11.31517        -0.420872     -0.539213      0.459100
