  # total energy = -7879.74940786 
CRSYTAL
PRIMVEC
    15.3600000000000000    0.2300000000000000    0.0000000000000000
     0.0000000000000000   15.3600000000000000    0.0000000000000000
     0.0000000000000000    0.0000000000000000    17.440000000000000
PRESSURE
2.66825 2.48359 -5.04651 -0.060051 -0.378319 -1.54574
PRIMCOORD
320 1
Pb       3.90190      3.84955      4.20829        -0.255536      0.053218      0.931441
Pb       3.77664      3.92136     17.30836        -0.117236      0.271982      0.739412
Pb       3.70632     15.37309      4.48679         0.322813      0.204624      0.123054
Pb       3.75787     15.29004      0.01560        -0.469331      0.504786     -0.199408
Pb       0.11864      3.73660      4.15087        -0.624071      0.003967      0.956731
Pb      15.35252      3.95196     17.31020        -0.025281      0.096333      0.204966
Pb      15.29375      0.23471      4.39728         0.077646      0.110800     -0.125491
Pb      15.27218     15.47453     17.33294         0.295692      0.259933      0.459530
Pb       3.89630      3.88980      8.62856        -0.580387      0.216458      0.447779
Pb       3.78263      0.14109      8.80507        -0.208027     -0.316112     -0.163124
Pb       0.08229      4.19632      8.74302        -0.267015     -0.736984      0.305213
Pb       0.06278     15.26342      8.69981        -0.219071      0.330617      0.589670
Pb       4.03230      3.97412     12.98366        -0.522927     -0.167108      1.275072
Pb       3.81667      0.18653     13.09568         0.150465     -0.653106      0.408961
Pb      15.34781      4.15533     12.96179        -0.033265     -0.654931      1.061193
Pb       0.00579      0.06889     13.05321        -0.139198     -0.353282      0.806171
Pb       3.88622      7.72949      4.36202         0.009739     -0.071646     -0.259992
Pb       3.83211      7.83634     17.32746        -0.048338     -0.710546      1.101803
Pb      15.19510      7.74263      4.29514         0.340476      0.829799      0.509666
Pb      15.30745      7.93836     17.33233         0.648419     -0.420387      0.904541
Pb       3.71739      7.66062      8.56285         0.255249      0.254821      0.882017
Pb      15.20696      7.99196      8.72811        -0.039564     -0.192512     -0.173510
Pb       3.82512      7.73348     12.90023         0.383141      0.505625      1.110416
Pb       0.01758      7.67151     12.98272        -0.089037      0.160823      0.659995
Pb       3.83719     11.55824      4.16184        -0.075871     -0.146835      1.218623
Pb       3.80136     11.62946     17.38319        -0.001736     -0.427178      0.133196
Pb       0.04634     11.59840      4.19193        -0.355261     -0.379403      0.989054
Pb       0.14926     11.51004      0.08113        -0.653827      0.253657      0.084504
Pb       3.68317     11.56297      8.56175        -0.237964      0.293211      1.284006
Pb      15.28889     11.78852      8.54449         0.120646     -0.288689      0.695066
Pb       3.79251     11.51746     12.88869         0.769505      0.081087      1.626676
Pb       0.05504     11.36711     13.01169        -0.182857      0.516163      1.065453
Pb       7.54337      3.82238      4.33858         0.431253      0.412346      0.171610
Pb       7.58821      3.97663     17.34736        -0.419516     -0.044162      1.098064
Pb       7.45322     15.44432      4.37636         0.578438      0.105873      0.666899
Pb       7.70910      0.21131     17.38311        -0.328593     -0.178229      0.303544
Pb       7.59840      4.05475      8.59271         0.343779     -0.188235      0.702987
Pb       7.66866     15.39854      8.69347         0.000457      0.276907      0.632844
Pb       7.67602      3.85139     12.96834         0.034549      0.405306      0.762743
Pb       7.62762     15.22499     13.11771        -0.374494      0.628965      0.219637
Pb       7.76901      7.67195      4.41989        -0.606708     -0.149959     -0.178242
Pb       7.80014      7.83936      0.10877        -1.027098     -0.273619      0.383002
Pb       7.84828      7.84870      8.60133        -0.816642     -0.169435      0.895237
Pb       7.62931      7.80864     12.98891         0.224412     -0.127179      0.856926
Pb       7.72734     11.89129      4.41424        -0.148394     -0.795638      0.628894
Pb       7.69623     11.53210      0.03530        -0.249988     -0.178139      0.017182
Pb       7.57105     11.74765      8.81563         0.525457     -0.196487      0.204627
Pb       7.74802     11.62484     13.20606        -0.735848     -0.302175      0.147916
Pb      11.47851      4.04517      4.42593         0.239423     -0.075049     -0.097253
Pb      11.47358      3.90225      0.02152         0.137983      0.250549      0.378700
Pb      11.59793      0.24327      4.19383        -0.092567     -0.297918      1.673536
Pb      11.39514     15.30841      0.07903         0.572188      0.444552     -0.297291
Pb      11.47988      3.97064      8.71397         0.171769      0.041484      0.364625
Pb      11.56766     15.52442      8.71457         0.006323      0.021149      0.330149
Pb      11.51680      4.00009     13.09185        -0.190621     -0.840742      0.413813
Pb      11.62541     15.32167     12.95521        -0.557655      0.991318      1.306782
Pb      11.36160      7.96272      4.20585         0.732206     -0.994682      0.947060
Pb      11.56411      7.73837     17.40597        -0.487948     -0.055645      0.687277
Pb      11.50784      7.78943      8.56968         0.154794      0.506694      0.536648
Pb      11.48346      7.71198     13.07913        -0.613262      0.910802      0.448508
Pb      11.66371     11.57304      4.22321        -0.290684      0.483949      1.069514
Pb      11.59639     11.66926     17.32712         0.012723     -0.003977      0.847199
Pb      11.39210     11.69074      8.45317         0.297564     -0.157068      1.162118
Pb      11.56028     11.58988     12.98163        -0.600976     -0.026381      1.112571
Ti       1.97791      1.90798      2.39800        -0.729563     -0.715705     -1.770793
Ti       1.90706      1.92269     15.36395        -0.842467     -0.369991     -0.994158
Ti       1.96554     13.49434      2.44078        -1.231866      0.356080     -2.181872
Ti       1.88167     13.41929     15.41340        -0.637381      0.744348     -1.596170
Ti      13.46544      2.10160      2.33192         0.298984      0.120031     -1.536899
Ti      13.36310      2.07878     15.50406         0.109506     -0.323122     -2.289783
Ti      13.43447     13.60554      2.37495         0.872620      0.297556     -2.763442
Ti      13.38426     13.56594     15.44242         0.803249      0.349018     -1.246336
Ti       1.85862      1.97799      6.76322         0.193397     -0.032687     -1.569924
Ti       1.90650     13.45395      6.68258        -0.035946      0.005556     -1.913029
Ti      13.49415      2.13289      6.86055        -0.380380      0.116321     -1.383952
Ti      13.42106     13.66396      6.68715        -0.897606     -0.072217     -1.116381
Ti       1.86379      1.95036     11.12637         0.185278     -0.248388     -1.335834
Ti       1.84611     13.42034     11.19688         0.523972      0.489079     -2.275398
Ti      13.39312      2.11072     11.10536         0.002487     -0.621699     -2.121375
Ti      13.43811     13.52203     11.12493         0.061636      0.309598     -1.999559
Ti       1.89227      5.79685      2.34546         0.903263      0.668422     -2.165849
Ti       1.86257      5.84334     15.32580         0.451869     -0.422662     -0.824135
Ti      13.45688      5.93435      2.30664        -1.062031     -0.864604     -1.067175
Ti      13.39641      5.92425     15.44199        -0.106555     -1.502453     -0.776498
Ti       1.88419      5.82094      6.62918        -0.521706     -0.646985      1.360691
Ti      13.41062      5.90581      6.65951        -0.130635      0.897610     -1.002779
Ti       1.91385      5.78136     11.15127        -0.219528     -0.010228     -2.357273
Ti      13.38963      5.96293     11.17683         0.183982      0.637816     -2.622856
Ti       1.86589      9.57313      2.44429        -0.207187     -0.647221     -1.122219
Ti       1.86581      9.62643     15.41914         1.196040      0.614394     -1.758505
Ti      13.41768      9.74184      2.35005         0.688776      0.324154     -1.389096
Ti      13.41645      9.70645     15.48278        -0.127265      1.376202     -1.603686
Ti       1.88475      9.57852      6.61949        -1.249913      0.253674     -1.331757
Ti      13.37801      9.80512      6.66793        -0.281324     -0.931732     -2.322888
Ti       1.88976      9.60837     11.03760         0.191059      0.227062     -1.350341
Ti      13.37126      9.74669     11.12245        -0.644402     -0.362421     -1.425315
Ti       5.73294      1.87158      2.35891        -0.147205      0.871102     -1.507643
Ti       5.64928      1.94610     15.52079         0.690593      0.011614     -2.121622
Ti       5.80041     13.46587      2.34301        -0.610594      0.180428     -1.872750
Ti       5.72099     13.48457     15.55171         0.034840     -0.416522     -2.761664
Ti       5.76032      1.97769      6.78581        -0.395703     -0.730833     -1.739166
Ti       5.71262     13.49444      6.85214        -0.000859      1.001571     -1.789496
Ti       5.72953      1.98463     11.10084         0.467440     -0.586657     -0.881278
Ti       5.65333     13.51282     11.08942         0.401119      0.030469     -1.060405
Ti       5.70732      5.79560      2.46356         0.642947      0.775155     -2.970768
Ti       5.66755      5.85998     15.49898         0.259845      0.327502     -1.599805
Ti       5.69357      5.83946      6.72265         0.822132      0.633989     -1.766973
Ti       5.72917      5.89098     10.99198         1.037101     -0.146437     -1.828314
Ti       5.75189      9.68805      2.46732         0.083520     -1.727338     -2.026691
Ti       5.72434      9.68438     15.49279         0.401480     -0.417950     -1.782184
Ti       5.70051      9.67825      6.78424         0.521259     -0.122623     -2.028021
Ti       5.80949      9.71153     10.97007        -0.582138      0.420182     -1.187699
Ti       9.62132      1.97459      2.43408        -0.383129      1.319987     -2.203957
Ti       9.57883      2.05000     15.52076         0.231590     -0.564533     -2.963054
Ti       9.62221     13.55611      2.43364         0.509605      0.040511     -1.026260
Ti       9.51564     13.51623     15.49718         0.248476     -0.447958     -0.002334
Ti       9.61857      2.07208      6.78067         0.446381     -0.375638     -0.623197
Ti       9.57288     13.66023      6.72204         0.228175     -0.365644     -1.964046
Ti       9.56590      2.00621     11.13535         0.082013     -0.022201     -0.678497
Ti       9.56582     13.54186     11.11069        -0.696738     -0.745873     -2.198016
Ti       9.56877      5.72577      2.41552        -0.125941      0.732003     -0.182287
Ti       9.47625      5.80106     15.48457         0.256817      0.810690     -1.206807
Ti       9.59081      5.86455      6.74724        -0.050327      0.250396     -2.454737
Ti       9.59253      5.87820     11.04852        -1.204153      0.690302     -0.825218
Ti       9.44561      9.74485      2.49602         0.093517     -0.738385     -2.139456
Ti       9.58405      9.64230     15.58758        -1.192513      0.256310     -2.542017
Ti       9.47626      9.79391      6.63439         1.191268     -0.041009     -0.254105
Ti       9.51417      9.75245     11.10490         0.805799     -0.721809     -1.796717
O       1.93172      1.79102      0.60335         0.153769      0.250266      0.688690
O       1.85014      1.88889     13.54954         0.286132      0.083675      0.614041
O       1.81675     13.54399      0.50308         0.605941     -0.356540      1.481096
O       1.84548     13.34969     13.59634         0.058463      0.125339      0.762379
O      13.55356      2.08066      0.50894        -0.549970      0.090437      1.144076
O      13.25373      2.19801     13.62056         0.342966     -0.350199      0.805289
O      13.41960     13.58872      0.46349        -0.012740      0.233668      1.424300
O      13.19033     13.57853     13.58955         0.699838     -0.224039      0.981347
O       1.93577      1.93884      4.88673        -0.204496     -0.069561      1.222678
O       1.92895     13.40487      4.75986         0.055084      0.210798      1.934075
O      13.40717      2.04762      5.02897         0.323022      0.317058      0.555007
O      13.32400     13.61449      4.89233         0.560683      0.192361      0.757733
O       1.86003      1.79865      9.28564         0.128873      0.445009      1.365812
O       1.83429     13.39260      9.29664        -0.055152      0.217114      0.883887
O      13.46043      1.99424      9.18877        -0.294378      0.391751      2.383561
O      13.48019     13.56182      9.25806        -0.175810      0.010567      1.354105
O       1.84383      5.88729      0.54314         0.257700     -0.319205      0.812576
O       1.94261      5.80918     13.47052        -0.296844      0.105297      1.339232
O      13.45401      5.98016      0.49090         0.030290     -0.055887      1.043565
O      13.28709      5.84462     13.59793         0.301035      0.164593      0.624267
O       1.85891      5.80000      4.92715        -0.034466     -0.166841     -1.509655
O      13.38354      5.92370      4.83479         0.319869     -0.006268      0.965169
O       1.85741      5.78636      9.20244         0.310769      0.128174      1.665695
O      13.43682      6.18830      9.29199         0.067564     -0.696364      1.748348
O       1.83990      9.57913      0.64540        -0.178971      0.139528     -0.205701
O       1.97691      9.72880     13.60009        -0.343870     -0.322974      0.489126
O      13.58038      9.74706      0.50997        -0.511994     -0.175738      0.827789
O      13.27256      9.80043     13.67252         0.524132     -0.404171      1.250175
O       1.89301      9.61434      4.81576         0.243157      0.134812      0.979995
O      13.22681      9.70903      4.80634         0.528348      0.308859      0.763821
O       1.79265      9.62183      9.23317         0.216192      0.002266      1.165503
O      13.34501      9.63971      9.30768         0.214969      0.352429      0.933718
O       5.65951      1.88049      0.54269         0.198892      0.011300      0.940882
O       5.63664      1.88935     13.64915         0.118048      0.348058      0.939858
O       5.73673     13.38006      0.50434        -0.094438      0.423020      1.521497
O       5.81710     13.37378     13.67691        -0.105860      0.641310      1.101651
O       5.62693      1.92435      4.91371         0.434766      0.082317      1.431931
O       5.68174     13.66342      4.98938         0.565155     -0.633322      0.779261
O       5.81479      1.96764      9.29436        -0.605891      0.224173      0.391142
O       5.79515     13.60345      9.23750        -0.250311     -0.173691      0.667440
O       5.68015      5.75083      0.56059         0.012265     -0.017862      1.257357
O       5.67822      5.75187     13.62743        -0.136738      0.349311      1.161976
O       5.70137      5.75153      4.85882        -0.092435      0.235008      1.377031
O       5.74742      5.84279      9.10019        -0.344240     -0.302304      1.533698
O       5.96662      9.59576      0.61738        -0.904501      0.526864      1.388838
O       5.73180      9.68485     13.66893         0.080403     -0.101694      0.794215
O       5.69447      9.74717      4.92525        -0.334311     -0.123780      1.594730
O       5.91832      9.69893      9.15290        -0.469559      0.070540      1.131494
O       9.58150      2.04140      0.55812        -0.058812     -0.194389      1.363590
O       9.61886      2.00608     13.62118        -0.221463      0.501449      1.533832
O       9.57102     13.50558      0.62345         0.227038      0.354824      0.557309
O       9.53417     13.40335     13.75353        -0.087476      0.494990     -0.433222
O       9.77048      2.04648      5.03338        -0.343104     -0.031620     -0.256819
O       9.52046     13.71265      4.88565        -0.179966     -0.353526      0.572324
O       9.62363      2.05759      9.34028        -0.259018     -0.061316      0.882441
O       9.46887     13.49248      9.26762         0.160321      0.205479      1.142022
O       9.52346      5.77046      0.64705        -0.096014     -0.148166     -0.357190
O       9.54901      5.83977     13.67287         0.039795     -0.064853      1.333199
O       9.73579      5.84089      4.86456        -0.626572      0.092731      1.540933
O       9.49581      5.88836      9.22949         0.249723     -0.018364      0.550455
O       9.36705      9.59732      0.60272         0.467670      0.721017      1.488785
O       9.43648      9.61305     13.74596         0.391197      0.198737      0.987066
O       9.56806      9.74230      4.84609        -0.068235     -0.027864     -0.211432
O       9.42708      9.72356      9.25499         0.273763      0.096661      1.153638
O       3.83757      1.89009      2.80094         0.280110     -0.104550     -0.199671
O       3.79103      1.90733     15.82502        -0.731220     -0.209468      0.078340
O       3.87035     13.45414      2.64447         0.206998     -0.095433      0.039856
O       3.79531     13.41184     15.73483        -0.318027      0.188526      0.696225
O       0.00839      1.86312      2.68564         0.195179      0.062723      0.621608
O      15.28978      2.04185     15.71449         0.958822      0.700925      0.259470
O      15.33396     13.72050      2.72061         0.165583     -0.252914      0.241296
O      15.29070     13.63402     15.69630         0.210922      0.203411      0.249348
O       3.78645      1.92797      7.20849         0.006798      0.366757     -0.045927
O       3.77977     13.49775      7.01985        -0.215573     -0.098372      0.406530
O       0.00433      1.83121      7.09056        -0.028768      0.162765      0.071747
O       0.00756     13.42919      6.97541        -0.914671      0.113149      0.164837
O       3.79639      1.99987     11.48882        -0.112130     -0.105367     -0.464275
O       3.73720     13.41607     11.47861         1.148446      0.498494     -0.308986
O      15.35798      2.11049     11.53766        -0.644502      0.066407     -0.308215
O      15.34103     13.54620     11.45535        -1.039687      0.105134      0.280355
O       3.86060      5.85217      2.74123        -1.172010     -0.307896      0.414536
O       3.76718      5.86419     15.84933        -0.749857     -0.266371     -0.268892
O       0.00743      5.82482      2.59045        -0.553607     -0.525178      0.730559
O      15.30694      5.99881     15.77239         0.594040     -0.221924     -0.449024
O       3.82032      5.89380      7.06143        -0.650370     -0.760932     -0.143146
O      15.29443      6.11692      7.11923         0.212064     -0.422220     -0.410377
O       3.80252      5.76590     11.44292         0.437137      0.177194     -0.519373
O      15.34096      6.00532     11.40857        -0.534374      0.454253      0.386629
O       3.74904      9.66165      2.66512         1.400739      0.377846      0.416822
O       3.77949      9.61604     15.84160         0.065652      0.855787      0.249076
O      15.33969      9.78723      2.75330        -0.935089     -0.026911      0.223575
O       0.04078      9.53225     15.69149        -1.651019     -0.008632      0.327791
O       3.74155      9.74956      7.10749         0.427507     -0.723738     -0.290150
O      15.24835      9.87202      6.92582         1.246035     -0.479729      0.436488
O       3.86301      9.68624     11.37164        -0.435431     -0.380720     -0.411953
O      15.28861      9.77332     11.49003         0.804634      0.027652     -0.229425
O       7.66581      1.98663      2.76612        -0.351341     -0.447302      0.021065
O       7.59504      2.03342     15.83375         0.124212     -0.309124      0.158035
O       7.68306     13.60938      2.71444        -0.002364     -0.139580      0.270083
O       7.58929     13.51015     15.81166         1.789013      0.256609      0.353438
O       7.68583      2.10227      7.00143        -0.839761     -0.384969      0.233141
O       7.66540     13.63018      7.12986        -0.897519     -0.435882     -0.221111
O       7.61615      1.95230     11.47548         0.682173      0.008570      0.002867
O       7.61381     13.48612     11.50434         0.443115      0.403044     -0.008765
O       7.61649      5.78426      2.84627         0.587105      0.109616      0.106157
O       7.55422      5.85016     15.87543         0.891913     -0.343082     -0.341647
O       7.64872      5.93682      6.99313        -0.323041     -0.575376      0.056208
O       7.60730      5.89055     11.43587        -0.090829     -0.138698     -0.253534
O       7.59544      9.63078      2.87308         1.382725      0.417399      0.050465
O       7.63940      9.66391     15.90662        -0.096704      0.111167      0.004173
O       7.66775      9.57146      7.00100        -0.811333      1.041772     -0.187794
O       7.63649      9.70036     11.49518        -0.470549     -0.338819     -0.067019
O      11.53662      2.19097      2.71662         0.235183     -0.574742     -0.116617
O      11.47399      2.12750     15.86451        -0.430162     -0.050043      0.241293
O      11.58670     13.57544      2.62395        -1.391733      0.181055      0.325604
O      11.49979     13.50791     15.82922        -0.895099      0.371759      0.343279
O      11.54200      2.19218      7.20686        -0.587678     -0.240339      0.154577
O      11.45814     13.61757      7.00662         0.734507     -0.125475      0.531732
O      11.47945      2.12107     11.42076         0.518270     -0.080508     -0.166140
O      11.46891     13.46277     11.38189         0.577007      0.080033      0.081258
O      11.50085      5.75875      2.62048         0.356948      0.392392      0.167625
O      11.50318      5.89203     15.97689        -0.729578     -0.371095     -0.745021
O      11.45319      5.82825      7.07380         0.789383      0.398633      0.250530
O      11.48759      6.04549     11.36764         0.214374     -0.867361      0.164419
O      11.49703      9.77982      2.64022        -0.473401      0.028746     -0.106570
O      11.48108      9.76766     15.86350         0.771279     -0.564450      0.199969
O      11.46084      9.76144      6.97563        -0.738387      0.146735      0.482668
O      11.43114      9.67491     11.45561         0.443268      0.264120      0.066018
O       1.99247      3.82816      2.60840        -0.411771      0.352614      0.402805
O       1.89971      3.86033     15.65833        -0.169295      0.222846      0.335223
O       1.87206     15.32619      2.84855         0.500123      0.675272     -0.040444
O       1.84266      0.03432     15.75635         0.562191     -0.664171     -0.035529
O      13.50378      3.98937      2.66692         0.310672      0.454013      0.036745
O      13.41315      3.95797     15.83287         0.130543      1.357361      0.310332
O      13.49292     15.50534      2.79348        -0.484706      1.076888     -0.390945
O      13.40204     15.55839     15.82359        -0.660717     -1.050150     -0.156034
O       1.78227      3.87079      6.99201         0.468832      0.148346      0.484405
O       1.84707     15.36516      7.12623         0.550666     -0.530857     -0.386825
O      13.46054      4.11119      7.14422         0.119265     -0.547259      0.073142
O      13.29149      0.21345      7.12649         0.681070     -0.975859     -0.206468
O       1.76133      3.94517     11.38068         0.577734     -1.659485     -0.097958
O       1.88633     15.32528     11.54744        -0.104659      0.838726     -0.365102
O      13.51444      4.01919     11.39538        -0.619247      0.213865     -0.139572
O      13.43906     15.49346     11.49910        -0.086019      0.137838     -0.460546
O       1.91168      7.66308      2.77323         0.039011      0.220451      0.243082
O       1.89816      7.75246     15.63761        -0.038871     -1.144366      0.319774
O      13.36715      7.87207      2.72722         0.071143     -0.672555     -0.365535
O      13.38609      7.75590     15.80646        -0.112362      1.580258     -0.116137
O       1.87587      7.66552      6.98650         0.229484      1.468140      0.178942
O      13.39568      7.90543      7.06988        -0.328319     -0.654467     -0.011027
O       1.87913      7.69872     11.43163         0.161242      0.614839     -0.017414
O      13.42332      7.86523     11.62526         0.059091     -0.141512     -0.160528
O       1.78723     11.60648      2.67756         0.655574     -0.822121     -0.088507
O       1.83489     11.57419     15.87418         0.339831     -0.796151      0.128081
O      13.45893     11.73892      2.64491         0.098074     -1.139964      0.330193
O      13.50904     11.66872     15.82183        -0.529497     -0.505986      0.003787
O       1.80069     11.50983      7.05008         0.431884      0.555056     -0.151268
O      13.37426     11.66805      6.97903        -0.110063      1.374579      0.358973
O       1.94039     11.51720     11.46399        -0.785826     -1.061607     -0.282102
O      13.39938     11.62879     11.56727         0.189578      0.187469     -0.656515
O       5.72999      3.88640      2.72571        -0.076519     -1.172379      0.153579
O       5.56215      3.86796     15.76265         0.501808      0.349785      0.281360
O       5.73112     15.38933      2.78704        -0.070338     -0.458367     -0.403432
O       5.69740     15.37940     15.80268         0.033539      0.311232      0.456054
O       5.63842      3.91342      7.03888         0.294303     -0.069801      0.226809
O       5.67146      0.10623      7.14983         0.336028      0.043157      0.140453
O       5.76704      3.93443     11.42107        -0.137989     -0.425211     -0.300920
O       5.69627     15.38638     11.49708        -0.167569      0.696779     -0.009186
O       5.74338      7.75095      2.77804        -0.125156      0.222091      0.432619
O       5.64395      7.76738     15.79602         0.316235     -0.527333      0.012825
O       5.67853      7.78084      7.00910        -0.331536      0.106116      0.018977
O       5.65546      7.73967     11.27119         0.154413      0.503117      0.337161
O       5.87740     11.56052      2.84607        -0.483922      1.383243     -0.430326
O       5.73185     11.55634     15.85089        -0.132145     -0.002671      0.547522
O       5.67823     11.64795      7.21310         0.590031     -0.520896     -0.471216
O       5.77409     11.65635     11.34382        -0.126248     -1.345459     -0.133164
O       9.51261      3.87923      2.86832         0.137537     -0.011068     -0.043068
O       9.45780      3.91337     15.84742         0.485164      1.093106      0.062803
O       9.72043      0.14591      2.72755        -0.444110     -0.687508     -0.211331
O       9.60231      0.18408     15.86110        -0.264494     -1.699740      0.223637
O       9.53699      3.98933      7.13064         0.106281     -0.080733      0.198257
O       9.57240     15.46660      7.18195         0.181532      1.415027      0.140534
O       9.55467      4.04349     11.46747         0.035990     -1.210105     -0.115663
O       9.65557     15.34419     11.51731        -0.578523      1.625067     -0.270738
O       9.53507      7.75433      2.71957        -0.023163      0.493077      0.227923
O       9.48985      7.75627     15.84962         0.689857     -0.829586      0.317482
O       9.55558      7.82423      7.01183         0.469436     -0.191402     -0.114733
O       9.56964      7.77620     11.55011        -0.453431      0.171794     -0.301113
O       9.60559     11.65036      2.86840        -0.605489      0.150496     -0.468273
O       9.54885     11.57944     15.87284        -0.053911      0.890069      0.211856
O       9.54481     11.73130      7.05360        -0.539790     -1.132001     -0.337428
O       9.48744     11.59898     11.49828         0.277912      0.043564      0.005350
