  # total energy = -7877.69280817 
CRSYTAL
PRIMVEC
    15.3600000000000000    0.2300000000000000    0.0000000000000000
     0.0000000000000000   15.3600000000000000    0.0000000000000000
     0.0000000000000000    0.0000000000000000    17.440000000000000
PRESSURE
0.550678 0.55382 -5.57665 -0.175262 0.016296 -1.58537
PRIMCOORD
320 1
Pb       3.86666      3.84250      4.24366         0.261008     -0.052442     -0.252134
Pb       3.72168      3.94691     17.31677         1.027965     -0.188689      0.334011
Pb       3.70348     15.39269      4.54631        -0.151165      0.216047     -0.921440
Pb       3.70677     15.30431     17.43301         0.222156      0.300226     -0.254788
Pb       0.16214      3.75225      4.18892        -1.116985     -0.211937      0.560750
Pb       0.02307      3.71576     17.27866        -0.841728     -0.271647      0.499131
Pb      15.27095      0.29131      4.44313         0.315049      0.297768     -0.986399
Pb      15.26285     15.47206     17.30718        -0.121172      0.064967      0.504711
Pb       3.87497      3.92841      8.64147         0.020503      0.327576      0.496299
Pb       3.72430      0.18433      8.85059         0.154873     -0.841914     -0.265572
Pb       0.09927      4.26880      8.79716        -0.469608     -1.254736      0.209132
Pb       0.08076     15.28454      8.73246        -0.686975      0.077579      0.196890
Pb       4.07896      4.00477     13.02827        -0.164854     -0.204020     -0.103296
Pb       3.82401      0.20996     13.13211         0.056762     -0.113997     -0.362813
Pb      15.33826      4.14225     12.99947        -0.222616     -0.386998      0.146908
Pb      15.33419      0.30779     13.10042        -0.244577     -0.093940     -0.136224
Pb       3.89616      7.73932      4.37389        -0.031635     -0.331029     -0.054104
Pb       3.79210      7.83147     17.37862         0.824457     -0.150175      0.451349
Pb      15.16825      7.69601      4.30219         0.439011      0.357491      0.213793
Pb      15.33683      7.91101     17.31690        -0.009568      0.146214      0.281671
Pb       3.68366      7.68475      8.54022         0.371829      0.282909      0.115805
Pb      15.15820      8.05842      8.70162         0.492738     -0.600249     -0.316643
Pb       3.87908      7.77213     12.89824         0.195661      0.168879      0.418555
Pb       0.02003      7.69635     13.02296        -0.408261      0.232591      0.148091
Pb       3.87345     11.53930      4.18591        -0.067056     -0.087166      0.703218
Pb       3.80726     11.62335     17.40024         0.285340     -0.636706     -0.018541
Pb       0.04886     11.58092      4.22971        -0.507888     -0.451586      0.114726
Pb       0.18714     11.50337      0.10324        -0.644146      0.215828     -0.546608
Pb       3.61461     11.56350      8.59015         0.655943     -0.080168      0.368529
Pb      15.25761     11.77969      8.51913        -0.429783      0.110636      0.487220
Pb       3.85492     11.50282     12.92089        -0.071895      0.035855      0.169086
Pb       0.03667     11.36024     13.05926        -0.117845      0.349379     -0.467282
Pb       7.53464      3.76611      4.35693        -0.098146      0.462981     -0.243846
Pb       7.52165      3.98775     17.40909         0.421715      0.197089     -0.171460
Pb       7.41468     15.45302      4.42391         0.456988      0.281745     -0.207765
Pb       7.68950      0.20601     17.42135        -0.007530      0.035125     -0.436439
Pb       7.59890      4.04850      8.59805         0.613284     -0.057112      0.311470
Pb       7.67839     15.46203      8.76197         0.465120     -0.297961     -0.565537
Pb       7.69422      3.85086     13.00730        -0.119081     -0.035666      0.177518
Pb       7.62518     15.19379     13.17188         0.030933      1.013621     -0.082024
Pb       7.75061      7.63810      4.43866        -0.549508      0.337532      0.065252
Pb       7.79212      7.80995      0.21338        -0.513737     -0.135430     -0.724677
Pb       7.84973      7.90401      8.58632        -0.620327     -0.448388      0.289652
Pb       7.60919      7.81589     13.00962         0.036994      0.090210      0.129585
Pb       7.71588     11.92526      4.49003        -0.181625     -0.536485     -0.589016
Pb       7.68019     11.51765      0.09251        -0.188298     -0.148181     -0.390805
Pb       7.56033     11.77442      8.83151         0.343287     -0.697740     -0.327714
Pb       7.75514     11.59395     13.23728        -0.612421     -0.705018     -0.593841
Pb      11.50130      4.02309      4.43276         0.259822     -0.215224     -0.544450
Pb      11.44249      3.87841      0.05088        -0.180771     -0.489186     -0.568775
Pb      11.61161      0.27828      4.26051        -0.149397     -0.165237     -0.411329
Pb      11.36636     15.26647      0.08594         1.045080      0.961429     -0.074159
Pb      11.49187      3.97128      8.76584         0.273436     -0.131879     -0.228535
Pb      11.60348      0.18088      8.76568        -0.061256     -0.207197     -0.227472
Pb      11.48956      3.92591     13.11022        -0.219536     -0.310820      0.149319
Pb      11.60712     15.30891     12.99550         0.022706      0.755574      0.316105
Pb      11.38840      7.92301      4.21010         0.432179     -0.366104      0.650473
Pb      11.56358      7.68613      0.01416        -0.275252      0.870976     -0.169681
Pb      11.50982      7.82085      8.55619        -0.137236     -0.046148      0.046094
Pb      11.42998      7.70578     13.12440        -0.100063      0.190186     -0.192070
Pb      11.68601     11.60550      4.21434        -0.236839      0.370534      0.158446
Pb      11.58844     11.60896     17.39648        -0.066874      0.075818      0.312672
Pb      11.35790     11.67584      8.48675         1.044695      0.135516      1.052472
Pb      11.54091     11.56432     13.03535        -0.094239     -0.002248     -0.337748
Ti       1.90078      1.83871      2.19668        -0.612488     -0.250363     -0.197996
Ti       1.92807      1.85049     15.45605        -0.269530     -0.041598     -1.061080
Ti       1.88761     13.39895      2.27162        -0.521011      1.209559     -0.706197
Ti       1.95094     13.39266     15.25789        -0.464061      0.295395      0.134781
Ti      13.38284      2.15442      2.18715         0.312712     -1.295024      0.498223
Ti      13.29185      1.94815     15.44609         1.080748      0.413017     -2.002851
Ti      13.40618     13.58694      2.24281         0.367092      1.201863     -1.623921
Ti      13.49693     13.54561     15.39214         0.392272      0.773582     -0.882966
Ti       1.85073      1.99397      6.81308         0.022454     -0.305586     -1.576901
Ti       1.83996     13.52968      6.68046         0.576214     -0.010781     -0.713683
Ti      13.45000      2.15574      6.79607        -0.100405      0.204260     -1.330041
Ti      13.34294     13.65068      6.47295         0.904567     -0.009513      0.710265
Ti       1.95582      2.03549     11.00752        -0.391451     -0.171776     -0.523157
Ti       1.88057     13.52074     11.02288        -0.109312     -0.204409     -1.274996
Ti      13.37441      2.05760     11.05116         0.118632     -0.118270     -0.418980
Ti      13.51162     13.52761     11.00132        -0.666920      0.423668     -1.022230
Ti       1.92136      5.74887      2.32090        -0.019734     -0.244302     -0.379506
Ti       1.92643      5.72718     15.39011         0.140633      0.393980     -0.725169
Ti      13.32869      5.86784      2.27699         0.898580      0.046846      0.781050
Ti      13.43594      5.89646     15.44298        -0.046700     -0.654474     -1.534680
Ti       1.89754      5.73559      6.56030        -0.085906      1.017862      0.382464
Ti      13.45310      5.88612      6.67537        -0.455970      0.335382     -1.286407
Ti       1.90448      5.89014     11.02601         0.571533     -0.459139     -1.545387
Ti      13.30904      5.97200     11.05265        -0.077282     -0.652212     -1.064157
Ti       1.90374      9.50197      2.35916         0.373106     -0.370899     -0.400608
Ti       1.90202      9.57801     15.41828        -0.004990      1.307750     -1.407774
Ti      13.48357      9.70944      2.18772         0.099382      1.020231     -0.266752
Ti      13.40796      9.83984     15.36217         0.173790     -0.721319      0.124271
Ti       1.84774      9.62242      6.57199         0.105115     -1.402003      0.513845
Ti      13.45704      9.75524      6.54147        -0.341619      0.264154     -1.657338
Ti       1.80898      9.62643     10.80652         0.134908      0.502302      0.710537
Ti      13.33058      9.71716     10.92511         0.475882      0.649418     -0.014266
Ti       5.66662      1.94646      2.19984         0.064116      0.593907      0.062683
Ti       5.71287      1.92469     15.38799         0.518761      0.935078     -0.505610
Ti       5.62227     13.58277      2.26928         0.773594     -0.151956      0.394300
Ti       5.79439     13.47473     15.55781        -0.062571      0.222348     -1.893936
Ti       5.69846      1.94803      6.82355         0.782640      0.020405     -1.396188
Ti       5.68481     13.45141      6.70018         0.237839      0.901797     -0.516084
Ti       5.77820      1.90432     10.94705        -0.326807      0.548366      0.560441
Ti       5.78006     13.43470     11.05605        -0.975241      0.013447     -0.546215
Ti       5.74732      5.91689      2.30995         0.047505     -0.825970     -1.946779
Ti       5.85455      5.88894     15.41557         0.302033      0.016584     -1.054130
Ti       5.74612      5.90233      6.71826         0.698235      0.205209     -1.365926
Ti       5.80067      5.83742     10.91332        -0.225509     -0.258693     -1.299291
Ti       5.83004      9.67748      2.42093        -0.904626     -0.102323     -1.764787
Ti       5.75186      9.67201     15.40431         0.190847      0.354403     -0.671943
Ti       5.76313      9.71927      6.59343        -0.354010     -0.873841     -0.249829
Ti       5.71777      9.64634     10.94263         0.894198      0.832758     -0.099715
Ti       9.47999      2.02310      2.35959         0.750221      0.358344     -1.383277
Ti       9.59950      1.97676     15.34534        -0.077204      0.932823     -1.750994
Ti       9.54751     13.60888      2.32809         0.411717      0.379975      0.699195
Ti       9.64904     13.54385     15.44776        -0.245364     -0.327841      1.388843
Ti       9.56878      2.03930      6.65609         0.236624     -0.451250     -0.168600
Ti       9.55017     13.54099      6.65129         0.071414      1.264219     -1.708360
Ti       9.65035      1.98456     11.04097         0.101262     -0.455254      0.834437
Ti       9.57013     13.46171     11.11238         0.694064      0.375325     -1.693255
Ti       9.50585      5.89455      2.43388         0.095546     -0.740087     -0.859341
Ti       9.68156      5.90574     15.48978        -1.718652     -0.577583     -1.023618
Ti       9.62795      5.84338      6.66567        -0.345146      0.593464     -1.371613
Ti       9.48499      5.84986     11.00239         0.291395      0.539233     -1.211232
Ti       9.54817      9.85097      2.37412        -0.276149     -0.786041     -0.891763
Ti       9.58351      9.75536     15.44089        -0.316107     -0.520313     -1.320464
Ti       9.61091      9.78464      6.59700        -0.077636     -0.654921     -0.833011
Ti       9.59668      9.65867     10.98141        -1.013264      0.024372     -0.050058
O       1.85865      1.88673      0.39207         0.123647      0.056562      0.731299
O       2.04540      1.87586     13.65054        -0.340412      0.171633      0.601030
O       1.99420     13.32783      0.38088        -0.269373      0.513638      2.803759
O       1.88905     13.35954     13.46974         0.166783      0.167226      0.377312
O      13.33029      2.06391      0.43309         0.153193      0.353926     -0.014016
O      13.39183      1.70784     13.51140        -0.065734      0.815432      1.707187
O      13.48181     13.57441      0.35539        -0.251059     -0.135094      1.613920
O      13.60154     13.60924     13.51649        -0.496464     -0.145101      1.671425
O       1.85982      1.88671      4.91535         0.130132      0.210155      1.571089
O       1.81501     13.60662      4.82628         0.223433     -0.348198      1.692654
O      13.45672      2.18894      4.92479         0.102952     -0.371417      1.674699
O      13.58514     13.73686      4.66646        -0.707143     -0.290091      1.575760
O       2.01812      2.01474      9.16687         0.034158     -0.213402      1.520691
O       1.82754     13.55630      9.08933        -0.011632     -0.317311      1.598290
O      13.12619      2.16922      9.21967         0.565540     -0.340681      1.025269
O      13.42821     13.51362      9.17214         0.261220      0.099027      1.074230
O       2.00371      5.76167      0.52956        -0.246623      0.056023     -0.005221
O       1.72600      5.79028     13.59773         0.745236      0.055331      1.384691
O      13.29663      5.94296      0.51137         0.170562     -0.030715     -0.210010
O      13.38845      5.93250     13.60945        -0.031078     -0.105106      1.158556
O       1.80719      5.70742      4.78248         0.378534     -0.534224      0.697426
O      13.50309      5.79732      4.84259        -0.163178      0.298303      1.336984
O       1.95918      5.90984      9.12835        -0.349671     -0.316454      2.491057
O      13.37936      5.93494      9.15764        -0.027524      0.236054      2.327546
O       1.97034      9.51397      0.53379        -0.057796      0.215316      1.147855
O       1.80275      9.48577     13.58687         0.205195      0.486815      1.340030
O      13.36342      9.77891      0.34414         0.486145     -0.401780      1.845661
O      13.54631      9.80174     13.53499        -0.406056      0.085846      1.429914
O       1.79450      9.60429      4.82408         0.041542     -0.020182     -0.034583
O      13.62188      9.82644      4.68912        -0.697305     -0.061258      1.604243
O       1.80136      9.52970      9.03430         0.097398      0.000052      0.653072
O      13.39421      9.70401      9.11087        -0.365550      0.072294      1.530290
O       5.79597      1.90665      0.41133         0.025598     -0.035832      1.077379
O       5.55028      2.00890     13.54832         0.315743     -0.172637      0.748823
O       5.55191     13.70768      0.47736         0.412588     -0.521891      0.666085
O       5.89230     13.48959     13.65358        -0.492092     -0.116227      1.777787
O       5.81039      2.02589      4.91259        -0.349878      0.036647      1.785366
O       5.75244     13.48092      4.81584        -0.114473      0.088256      2.042234
O       5.57355      1.86832      9.14356         0.740009      0.280812      0.948743
O       5.81019     13.32541      9.20847         0.061745      0.390526      1.419821
O       5.95204      5.95961      0.38222        -0.615169     -0.270719      1.791056
O       5.83395      5.79381     13.51756        -0.221164      0.092591      1.776924
O       5.71678      5.86263      4.84695         0.219374     -0.300042      1.431344
O       5.80517      5.84460      9.04208        -0.002189     -0.053937      1.744636
O       5.80076      9.66736      0.51464         0.127828     -0.167780      2.017798
O       5.67282      9.76636     13.55517         0.022908     -0.408788      1.208103
O       5.63903      9.61556      4.77474         0.288886      0.416619      1.667946
O       5.74207      9.90731      9.18968         0.029092     -0.532777      0.688126
O       9.52884      2.02287      0.48614        -0.065878     -0.121637      1.972160
O       9.65006      1.97653     13.45649        -0.299384      0.012129      2.185394
O       9.74223     13.58280      0.54055        -0.727823      0.045304      0.624796
O       9.49669     13.55193     13.70792         0.076083     -0.322821     -0.342979
O       9.44620      2.06740      4.85611         0.259380     -0.134870      0.854827
O       9.50295     13.48207      4.77539         0.004446      0.169307      1.661837
O       9.85486      2.02636      9.24140        -0.561254     -0.146383      1.226425
O       9.53622     13.49037      9.28392        -0.058906     -0.339698      0.745910
O       9.49716      5.95531      0.58940         0.483026     -0.226992      0.822833
O       9.73903      5.90738     13.67579        -0.360436      0.059282      1.245051
O       9.51176      5.96712      4.80470         0.367889     -0.305274      0.968885
O       9.47438      6.01340      9.17083         0.291059     -0.685126      1.154470
O       9.46460      9.82512      0.52835         0.182667     -0.294815      1.734088
O       9.63966      9.81997     13.56587        -0.079182     -0.447589      1.794571
O       9.64121      9.72256      4.76649        -0.077422      0.338379      1.376188
O       9.68817      9.61188      9.15440        -0.174607      0.375750      0.922840
O       3.76872      1.90720      2.64005         0.370735      0.527004     -0.096152
O       3.90260      1.94481     15.88665        -1.641977      0.227855     -0.262497
O       3.81047     13.49943      2.83752        -0.857578      0.026543     -0.705962
O       3.80025     13.40740     15.81037         0.515340      0.224869     -0.494914
O      15.27081      1.99297      2.67425         0.472888      0.748392     -0.276700
O      15.26756      2.07126     15.76720         1.174548      0.009474     -0.062810
O      15.31551     13.63619      2.56943         1.494381     -0.022609     -0.057344
O       0.03957     13.42382     15.82348        -0.328120      0.090252     -0.561521
O       3.87198      1.93194      7.11932        -0.504758      0.101012     -0.330156
O       3.83876     13.51341      7.15886        -0.368108     -0.295086     -0.815890
O       0.06530      1.94738      7.23543        -1.063626     -0.066759     -0.389550
O       0.01213     13.50194      7.05408        -0.744468     -0.076942     -0.478653
O       3.81511      2.01292     11.48670        -0.030726      0.211123     -0.577654
O       3.69581     13.33806     11.27060         1.535804      0.130648      0.300353
O      15.28053      2.10494     11.44648         0.843875      0.419582     -0.361332
O       0.01077     13.52548     11.43253        -0.105080     -0.444645     -0.432870
O       3.88495      5.77671      2.68083        -1.042889     -0.223706      0.081026
O       3.94508      5.78290     15.69244        -1.914515      0.089110      0.041682
O      15.30653      5.93955      2.71100        -0.363461     -0.308018     -0.658591
O       0.01700      5.64610     15.80139         0.134823      0.579770     -0.013531
O       3.88094      5.81152      6.97534        -1.004241     -0.329858     -0.010398
O      15.33077      6.02613      7.07925         0.794198     -0.403173     -0.311984
O       3.89586      5.81395     11.29698        -1.093289      0.472584      0.155630
O      15.26183      5.91442     11.43748         0.086980      0.600681     -0.680273
O       3.81157      9.51073      2.82652        -0.449185      0.469789     -0.614144
O       3.82435      9.63067     15.81231        -0.089640      0.489011     -0.180277
O       0.01856      9.59425      2.59676        -0.375981     -0.269424     -0.426902
O       0.04995      9.67476     15.89332        -0.953089     -0.692999     -0.379399
O       3.74039      9.62317      7.02938         0.635242      0.104160     -0.429507
O      15.20889      9.73450      7.13891         1.852385      0.238024     -0.543847
O       3.82105      9.59287     11.26476        -0.329345      0.188602      0.132880
O      15.27727      9.70897     11.31392         0.136130     -0.224338     -0.337463
O       7.58304      1.91759      2.73061         0.097942      0.348143     -0.321412
O       7.67278      1.89397     15.59079         0.176541      0.021365      0.450426
O       7.59542     13.66114      2.75576        -0.024207     -0.443258     -0.707222
O       7.67025     13.54010     15.92993         0.763408      0.125182     -0.271423
O       7.75071      1.98156      7.25202        -0.651856      0.037184     -0.314154
O       7.68840     13.42294      7.12479        -0.848121      0.301647     -0.440087
O       7.60106      2.00038     11.35639         0.662081     -0.223752     -0.484819
O       7.61563     13.51524     11.58049         0.272607     -0.599323     -0.786058
O       7.59823      5.89639      2.70845         1.123519     -0.242295      0.249066
O       7.70865      5.83631     15.77663         0.689391     -0.095474     -0.116529
O       7.72681      5.93820      7.01110        -0.684716     -0.441889      0.028775
O       7.63480      5.71766     11.45108         0.543889      0.233222     -0.182266
O       7.58536      9.70443      2.84013         1.393539      0.287231     -0.487674
O       7.66812      9.80924     15.71970         0.383597      0.245663      0.061087
O       7.72616      9.70432      7.01412        -0.464852      0.246591     -0.616772
O       7.64924      9.64045     11.43233        -0.024726      0.574989     -0.391737
O      11.53073      2.07467      2.74827        -0.982350     -0.082438     -0.004597
O      11.52329      2.06038     15.79664        -1.309975     -0.325420      0.046205
O      11.54649     13.52148      2.76111        -1.373197      0.260326     -0.338081
O      11.59038     13.55487     15.85451        -1.179424     -0.211350     -0.757210
O      11.51574      2.10374      6.99856        -0.518877      0.110792     -0.038933
O      11.56175     13.54725      6.98100        -0.565681      0.086227     -0.557283
O      11.53666      1.92288     11.59271        -1.017867      0.143310     -0.858892
O      11.47862     13.49846     11.46543         0.258477     -0.436830     -0.129709
O      11.50374      5.92835      2.88156        -0.562947      0.379604     -0.817278
O      11.53599      5.93585     15.83727        -0.019831      0.079149      0.211373
O      11.51146      5.92440      6.99947         0.059843     -0.242827     -0.072501
O      11.33828      5.97251     11.44635         1.614124     -0.164899     -0.247110
O      11.54053      9.78830      2.69801        -0.724398      0.122940     -0.572241
O      11.49857      9.80171     15.82813         0.929827     -0.370421     -0.634045
O      11.58526      9.76413      6.98919        -1.364779      0.079227     -0.345822
O      11.43811      9.68050     11.45330         1.041105     -0.042473     -0.299559
O       1.87197      3.74277      2.64141         0.313558      0.486992     -0.158295
O       1.84217      3.78172     15.85687         0.814065      1.244341     -0.698273
O       1.92011     15.34238      2.69783         0.019730     -0.417518     -0.354296
O       1.97847     15.35285     15.75250        -0.203018     -0.386029     -0.295602
O      13.25903      4.00899      2.65029         0.667438      0.298476     -0.361864
O      13.32338      3.89291     15.75431         0.536777      1.708814      0.022199
O      13.34886     15.48162      2.49145        -0.157422      0.867428      0.679524
O      13.38387     15.47866     15.83132         0.211018     -0.743919     -0.100556
O       1.98938      3.85354      7.20970        -0.262663      0.956314     -0.906014
O       1.93834      0.05499      7.11018         0.023302     -0.367762     -0.196859
O      13.46005      4.07019      7.22705        -0.081954     -0.474421     -0.385279
O      13.38718      0.23604      7.08240         0.481863     -0.766313     -0.423973
O       1.85607      4.02850     11.43009         0.214396     -1.128301     -0.341788
O       1.96549      0.12645     11.31039         0.005828     -0.403635     -0.100801
O      13.24486      3.96520     11.51099         0.497429      0.837532     -0.513769
O      13.35595     15.42785     11.23445         0.043543      0.630226      0.093686
O       1.86424      7.52824      2.79381         0.080470      1.906700     -0.417109
O       1.96902      7.80521     15.88600        -0.610716     -2.821790     -0.474621
O      13.39503      7.90758      2.70825         0.033071     -0.723782     -0.693166
O      13.44558      7.83095     15.75836         0.159977      0.190187      0.015264
O       1.90522      7.59523      6.99524        -0.091554      0.585245     -0.499928
O      13.42545      7.85661      6.97760        -0.159293     -0.310425     -0.125707
O       1.93276      7.79681     11.50036        -0.319802     -1.459510     -0.706672
O      13.34439      7.81038     11.48975         0.005831      0.148869     -0.619515
O       1.87119     11.49225      2.71782         0.617159      0.294161     -0.533931
O       1.82075     11.60515     15.80046         0.741631     -1.480308     -0.384138
O      13.45752     11.74159      2.60396         0.046415     -1.648046      0.150880
O      13.44241     11.68758     15.75815         0.100100     -0.291009     -0.399684
O       1.80844     11.43718      7.00843        -0.044975      1.780405     -0.354911
O      13.47029     11.69782      6.89075         0.107510      0.906459     -0.307977
O       1.78462     11.47899     11.24655         0.053561     -0.276280     -0.108445
O      13.46479     11.63409     11.34756        -0.205710     -0.742870      0.104005
O       5.76787      3.93647      2.58242        -0.167011     -1.110768      0.250778
O       5.80569      3.88284     15.80455        -0.120334      0.338675     -0.243127
O       5.59085      0.12086      2.85296         0.365540     -0.500642     -0.652685
O       5.70586     15.43006     15.76895         0.033575     -0.726617     -0.042976
O       5.78969      3.88966      7.16381         0.001576      0.011768     -0.632501
O       5.82555     15.39665      7.11157         0.003541     -0.193686     -0.309104
O       5.78563      3.93205     11.32805        -0.442640     -0.714715     -0.052923
O       5.65717     15.35985     11.37519        -0.006595      0.254559     -0.128756
O       5.76189      7.71392      2.76823        -0.206700      0.821028     -0.188408
O       5.91961      7.87461     15.73545        -0.648446     -1.590138     -0.190013
O       5.74960      7.78063      7.05465        -0.067689      0.669808     -0.389147
O       5.85280      7.70486     11.41710        -0.541780      0.509916     -0.460835
O       5.62973     11.63142      2.62313         0.240802      0.023639     -0.143231
O       5.78455     11.58251     15.99050        -0.330137      0.635102     -0.480642
O       5.72537     11.57652      7.00716        -0.063835     -0.055074     -0.253772
O       5.77707     11.58928     11.59775        -0.116045     -0.194304     -0.927488
O       9.58677      3.97978      2.74440        -0.289982     -0.407665     -0.099421
O       9.66737      3.85855     15.82615        -0.301370      1.235582     -0.203425
O       9.54868      0.16490      2.73810         0.552914     -0.610735     -0.237627
O       9.69571     15.50213     15.83800        -0.416764     -1.417344     -0.147434
O       9.54527      3.97470      7.00773         0.144572     -0.428643      0.018699
O       9.55761     15.35983      7.09063         0.158883      1.167903     -0.074320
O       9.65925      3.89773     11.52136        -0.305929      0.019152     -0.821304
O       9.51936     15.31731     11.40611         0.077381      1.525551     -0.013101
O       9.43813      7.83505      2.72266         0.832460      0.366861     -0.146834
O       9.57164      7.88260     15.93226         0.349964     -1.017522     -0.420987
O       9.59898      7.78199      7.03359         0.385822      1.122990     -0.404956
O       9.40052      7.74137     11.41304         0.579955      0.262950      0.068568
O       9.46462     11.68855      2.64363         0.143251     -0.016480      0.177534
O       9.63273     11.58784     15.93521        -0.201063      1.727432     -0.531672
O       9.55368     11.69041      7.01995         0.488156     -1.507057     -0.144312
O       9.60529     11.54535     11.48952        -0.424574      0.268735     -0.204439
