  # total energy = -7879.42067946 
CRSYTAL
PRIMVEC
    15.3600000000000000    0.2300000000000000    0.0000000000000000
     0.0000000000000000   15.3600000000000000    0.0000000000000000
     0.0000000000000000    0.0000000000000000    17.440000000000000
PRESSURE
0.425274 0.21535 3.56817 0.034526 0.232009 -1.57788
PRIMCOORD
320 1
Pb       3.79384      3.84192      4.27203        -0.029080      0.334832     -0.305272
Pb       3.76269      3.94877     17.36167         0.030367     -0.210501     -1.074367
Pb       3.69812      0.06334      4.45010        -0.083077      0.102499     -0.622212
Pb       3.70616     15.36970     17.32549         0.349433     -0.063651     -0.399300
Pb       0.06043      3.77070      4.32039         0.120275      0.308614     -0.465808
Pb      15.34859      3.98316     17.31432        -0.397808      0.694940     -0.956380
Pb      15.28236      0.36146      4.37143         0.630161     -0.727441     -0.660604
Pb      15.30044     15.51426     17.32078         0.276745     -0.010387     -0.496141
Pb       3.82372      3.99976      8.67404        -0.340103     -0.137008      0.352663
Pb       3.69358      0.14521      8.82549         0.339533     -0.125288     -0.510802
Pb       0.04263      4.10349      8.87058         0.397991     -0.411838     -0.460318
Pb      15.33773      0.23130      8.76037         0.379593      0.354793     -0.876564
Pb       4.01296      3.99532     13.07881        -0.664803     -0.052468     -0.445150
Pb       3.82750      0.17878     13.09255         0.057889     -0.448407     -0.925557
Pb      15.31931      4.09561     13.03916         0.455618      0.173866     -0.104444
Pb      15.29177      0.26330     13.08624         0.447924     -0.468355     -0.378491
Pb       3.89041      7.72373      4.33533        -0.358645      0.082686     -0.870850
Pb       3.80456      7.76926      0.01422         0.030805     -0.410836     -0.090650
Pb      15.22631      7.71037      4.28333         0.860642      0.649962     -0.743305
Pb       0.02421      7.59384     17.35542        -0.151723     -0.383882     -0.419655
Pb       3.73286      7.78575      8.55626         0.182012     -0.395439     -0.405576
Pb      15.17584      8.07331      8.61329         0.718236     -0.348106     -0.199447
Pb       3.92203      7.82631     12.95188        -0.225935     -1.286310      0.062608
Pb      15.33838      7.95048     13.06203         0.047300     -0.715220     -0.650277
Pb       3.88207     11.52302      4.30340        -0.308529     -0.113806     -0.404960
Pb       3.87246     11.53460     17.41591        -0.067036      0.580267     -0.289705
Pb       0.02197     11.47905      4.28581         0.054826      0.072602     -0.824127
Pb       0.14609     11.46781      0.00544        -0.096426      0.036912     -0.165935
Pb       3.64687     11.54038      8.64584         0.582531      0.235445     -0.371168
Pb      15.20214     11.77603      8.53721         0.436141     -0.528367     -0.042561
Pb       3.91248     11.49417     13.00265        -0.219599      1.131617     -0.649276
Pb      15.31767     11.65939     13.02951         0.303523      0.499945     -0.784840
Pb       7.55183      3.76221      4.35033         0.611243      0.424782     -0.307172
Pb       7.53804      3.97742      0.02921         0.590556      0.108718     -0.834940
Pb       7.46443      0.15158      4.40971         0.689303      0.013589     -0.436407
Pb       7.65384      0.13380     17.43181        -0.189025     -0.687745     -0.806454
Pb       7.70385      3.96913      8.65219        -0.040017      0.021014     -0.036251
Pb       7.73860      0.17547      8.77832        -0.141907     -0.383520     -0.646902
Pb       7.72713      3.86613     13.02178        -0.121862     -0.041840     -0.079468
Pb       7.66288     15.27130     13.16775         0.206094      0.294428     -0.582836
Pb       7.61973      7.70420      4.40348         0.207436      0.083552     -0.996430
Pb       7.74716      7.75125      0.20678         0.050990      0.182973     -1.097747
Pb       7.71132      7.94894      8.57051        -0.011137     -0.496623     -0.352117
Pb       7.60562      7.77389     13.04354         0.335861      0.008688     -0.641485
Pb       7.65626     11.80063      4.47059         0.162629     -0.496346     -0.329486
Pb       7.65690     11.56260      0.10966         0.035995      0.322030     -0.960379
Pb       7.59972     11.71358      8.72179         0.047246      0.074710     -0.978196
Pb       7.71352     11.51281     13.14143        -0.168890      0.489200     -0.864580
Pb      11.55240      3.95184      4.31198        -0.439482     -0.032978     -0.361739
Pb      11.39049      3.85281     17.41521         0.484378      0.462077     -0.724523
Pb      11.53225      0.25984      4.34838        -0.503847     -0.497988     -0.551438
Pb      11.41150     15.35741      0.00336         0.099284      0.021426     -0.883698
Pb      11.51790      3.96025      8.77332        -0.100747      0.261231     -0.816802
Pb      11.62224      0.20452      8.75247        -0.896859     -0.275910     -0.632536
Pb      11.43867      3.81607     13.08404         0.103692      0.943987     -0.312081
Pb      11.52701     15.38685     13.07771        -0.122304     -0.381790     -0.569480
Pb      11.52736      7.81752      4.26026        -0.277792     -0.024874     -0.456203
Pb      11.53367      7.71088      0.04395         0.355686      0.128565     -0.605567
Pb      11.52030      7.88491      8.55223        -0.678581     -0.152007     -0.509793
Pb      11.36562      7.73442     13.12646         0.571289     -0.218734     -0.614955
Pb      11.60441     11.72354      4.22522        -0.405147      0.392073     -0.022608
Pb      11.55854     11.51643      0.04221        -0.151707     -0.114612     -0.537980
Pb      11.44489     11.65807      8.64385         0.011166     -0.079869     -0.836939
Pb      11.50046     11.53181     13.07230         0.275329      0.489702     -0.452637
Ti       1.83298      1.98416      2.05731         0.566236     -1.043722      2.364795
Ti       1.89248      1.95175     15.25599         0.304825      0.562633      1.521342
Ti       1.91558     13.53900      2.40710        -0.473587     -0.610161     -0.062595
Ti       1.94277     13.40874     15.24374        -0.150506      0.512019      1.122132
Ti      13.39917      2.07153      2.18610        -0.161172      0.613342      0.228122
Ti      13.43890      2.08846     15.28149        -0.114827      0.024967      2.512418
Ti      13.44961     13.72455      2.27615         0.071924     -1.284769      2.672932
Ti      13.48454     13.53007     15.35448        -0.548636      0.263932      3.798540
Ti       1.82905      2.06065      6.74773         0.150547     -0.817255      3.292728
Ti       1.89726     13.50080      6.65371         0.561784      0.510660      1.837355
Ti      13.39763      2.12829      6.59641        -0.038668     -0.242822      3.356589
Ti      13.40213     13.69571      6.66191        -0.161362     -0.441785      0.319105
Ti       1.90120      1.88393     11.03392         0.947513      1.157402      0.348935
Ti       1.94266     13.43408     10.91766         0.334174     -0.039912      1.984115
Ti      13.44300      2.11536     10.97299         0.424372      0.121463      2.358420
Ti      13.44416     13.56022     10.87754         0.248626      0.214853      2.984718
Ti       1.87491      5.71332      2.17796         0.873612      1.159951      2.663818
Ti       1.97200      5.78444     15.27489        -1.200487     -0.943530      0.330244
Ti      13.43439      5.77360      2.24972         0.000868      2.118459     -0.669266
Ti      13.38098      5.88682     15.29562         1.084614     -0.371730      1.656624
Ti       1.90733      5.81079      6.55229        -0.181738     -0.560193      0.464570
Ti      13.40965      5.90513      6.57373        -0.105881     -0.161380      1.718015
Ti       1.93652      5.74121     11.08130         0.270784      0.500209     -0.719228
Ti      13.42702      5.95581     11.02104        -0.186789     -0.480979      0.875880
Ti       1.95862      9.61486      2.25600        -0.673124     -0.272326      1.349387
Ti       2.07082      9.53816     15.30394        -1.638103      0.351451      3.157836
Ti      13.41528      9.77684      2.30502         1.333179     -0.378631      1.587776
Ti      13.51350      9.71259     15.43134        -0.490848      0.026459      0.453065
Ti       1.92265      9.64270      6.46091        -0.329439     -0.789711      0.304229
Ti      13.38846      9.74275      6.47951        -0.103596      1.163344      3.580040
Ti       1.93563      9.58361     10.97737        -0.760103     -0.041955      0.192874
Ti      13.47400      9.74139     10.95949        -0.778260      0.215051      0.064946
Ti       5.63922      2.00376      2.17747         0.271676      0.000351      0.563062
Ti       5.80179      2.04800     15.41737        -0.438838     -0.256173     -0.477999
Ti       5.69800     13.57532      2.33172        -0.062787     -0.388981     -0.196003
Ti       5.70720     13.55281     15.26549         1.121913     -0.589890      2.374313
Ti       5.69491      2.00597      6.75122         0.129600     -0.472414      1.892877
Ti       5.72101     13.58157      6.69617         0.001491     -0.138973      1.288077
Ti       5.80805      1.96883     11.03970        -0.481240     -0.124855      0.899170
Ti       5.75468     13.54627     10.96798        -0.679213     -0.405695      1.047619
Ti       5.78375      5.79189      2.21916        -0.035640      1.050387      4.921756
Ti       5.74513      5.89372     15.34748         0.235688     -0.396374      2.592535
Ti       5.77507      5.79478      6.56466        -0.237341      1.125082      3.239214
Ti       5.86040      5.85374     10.96490        -0.543507     -0.068754      2.434011
Ti       5.79577      9.72786      2.24538        -0.189843     -0.577155      2.848320
Ti       5.78650      9.63529     15.41876         1.004078      0.343367      1.898354
Ti       5.78840      9.72425      6.57017        -0.359977     -0.360664      0.560831
Ti       5.70667      9.69193     10.91481         1.660056      0.496121      1.485047
Ti       9.52189      2.03471      2.27370         0.357155     -0.292215      3.796610
Ti       9.56990      2.00774     15.37104        -0.297024      0.237843      1.986870
Ti       9.49937     13.58769      2.34696         0.898917      0.030697      0.759791
Ti       9.57639     13.44181     15.40538        -0.786732      1.000156     -0.927890
Ti       9.52699      2.02053      6.65887         1.302616     -1.125326      0.447838
Ti       9.58880     13.60726      6.54108         0.148519     -0.351399      4.463427
Ti       9.58830      1.94756     11.09675        -0.410119     -0.085533      1.214108
Ti       9.59697     13.47026     10.93453        -0.051695      0.783446      1.832447
Ti       9.70399      5.83848      2.24524        -1.603418      0.176220      2.134734
Ti       9.58790      5.91486     15.34861        -0.126221     -1.159843      0.856148
Ti       9.57550      5.85309      6.50542         0.144735      0.728027      2.367791
Ti       9.65734      5.87853     10.97275         0.151894     -0.209428      1.825313
Ti       9.60679      9.71935      2.34005        -0.428129      0.428884      0.303964
Ti       9.60845      9.64773     15.37349        -0.065202      0.478885      2.684955
Ti       9.57624      9.77939      6.42249         0.084872     -0.194944      1.094113
Ti       9.65456      9.73215     10.99466        -0.493155     -0.861108      1.512351
O       1.94407      1.91836      0.34880         0.026271      0.287630     -1.070150
O       1.78500      1.84660     13.53773         0.319095      0.137284     -1.090278
O       1.92151     13.47075      0.67565         0.222997      0.187503     -1.388399
O       1.94517     13.44557     13.53274        -0.093160     -0.068142     -0.367562
O      13.25346      2.15802      0.44646         0.489736     -0.482833      0.156722
O      13.60215      2.13898     13.58147        -0.325332     -0.127642     -1.214788
O      13.45480     13.69596      0.58811        -0.145096     -0.039000     -1.871409
O      13.47651     13.56037     13.71180         0.024737     -0.329923     -3.356451
O       1.81591      1.95027      5.05935         0.026281      0.065686     -2.077386
O       1.85782     13.71380      4.93443         0.068154     -0.254059     -1.161090
O      13.41837      2.05235      4.89060         0.100717      0.087027     -1.893518
O      13.38274     13.69314      4.90815         0.350047      0.472374     -0.238672
O       2.01783      2.03208      9.27862        -0.370566     -0.264541     -0.293278
O       2.08203     13.39298      9.17331        -0.263179      0.016335     -0.299834
O      13.36462      2.02228      9.25053        -0.103368      0.330782     -0.095390
O      13.27827     13.60284      9.17222         0.583274     -0.120498     -1.100233
O       1.93421      5.63231      0.45067        -0.011734      0.203097     -0.253502
O       1.95819      5.74124     13.53057        -0.181388      0.585064     -0.594244
O      13.31608      5.78837      0.49171         0.357234      0.076407      0.273591
O      13.54134      6.08366     13.58882        -0.195786     -0.197056     -1.517000
O       1.90813      5.70443      4.78581        -0.166800     -0.288334      0.420663
O      13.45582      5.99556      4.86316        -0.179371     -0.289405     -1.368610
O       1.95907      5.74022      9.24926        -0.091211     -0.039575      0.448208
O      13.36095      5.72508      9.27190        -0.216238      0.560192     -0.859479
O       2.05915      9.68314      0.49369        -0.146937     -0.193364     -0.736209
O       1.76933      9.61831     13.63464         0.272765     -0.234479     -1.690641
O      13.39461      9.78821      0.61203        -0.006107      0.111793     -2.487836
O      13.59693      9.70202     13.66130         0.045841      0.172384      0.092649
O       1.96152      9.63981      4.70890        -0.327469      0.147959      0.482931
O      13.52190      9.77090      4.83101        -0.158081     -0.100384     -3.395500
O       1.99295      9.60989      9.24501        -0.121048     -0.103379     -0.782757
O      13.40389      9.88258      9.20719         0.053882     -0.386212     -0.748540
O       5.75074      2.08201      0.42162        -0.316372      0.013385      0.291762
O       5.98444      2.06222     13.64712        -0.359345     -0.217574      0.039327
O       5.69454     13.48201      0.59220         0.023828      0.172768      0.022800
O       5.87035     13.44436     13.54840        -0.234952      0.009794     -0.735877
O       5.73331      2.04688      5.03902         0.127102     -0.223265     -1.780776
O       5.80035     13.57919      4.93647        -0.353300      0.109053     -0.966683
O       5.74080      2.04127      9.32018         0.482251     -0.140012     -1.143501
O       5.72546     13.48557      9.22627         0.134265     -0.027591     -0.844024
O       5.61237      5.72193      0.57847         0.060254      0.064279     -3.005630
O       5.82873      5.90598     13.65029         0.193696      0.026335     -1.842518
O       5.83994      5.88532      4.88468        -0.106807     -0.318326     -1.768943
O       5.77952      5.81677      9.28460        -0.170911      0.167796     -1.359852
O       5.76826      9.61685      0.55248        -0.489732      0.088015     -2.419376
O       5.90545      9.64807     13.71608        -0.198178      0.013498     -1.812377
O       5.75349      9.70725      4.80824         0.112680      0.246671      0.012088
O       5.74350      9.55704      9.21268        -0.199167      0.290565     -1.134328
O       9.64378      2.02597      0.61142        -0.135025     -0.147246     -2.826377
O       9.44454      2.07754     13.68306         0.213872     -0.254984     -2.101181
O       9.47374     13.72612      0.59963         0.188460     -0.538818     -0.839224
O       9.55707     13.50867     13.57477        -0.038146     -0.410435      1.003420
O       9.48278      1.96200      4.90922         0.254029      0.257474     -0.544642
O       9.40806     13.60860      4.89834         0.353375      0.147839     -3.662365
O       9.52770      1.77259      9.39988         0.347753      0.702133     -1.655324
O       9.71412     13.49054      9.19220        -0.536922     -0.330797      0.200038
O       9.69194      5.79710      0.51803         0.043174      0.490781     -0.967422
O       9.59321      5.88451     13.57818        -0.106379      0.432638      0.323918
O       9.52327      5.85487      4.80513         0.254109     -0.111045     -0.745984
O       9.78297      5.82525      9.27472        -0.049816      0.047093     -1.531853
O       9.69276      9.77737      0.54080         0.023279     -0.251891      0.154466
O       9.58916      9.66964     13.64894        -0.010469      0.063873     -1.215638
O       9.47163      9.79330      4.69913         0.247920     -0.194269     -0.960402
O       9.65810      9.84559      9.29962         0.160925     -0.131676     -1.513865
O       3.77032      2.04381      2.63039         0.499196     -0.278200     -0.145550
O       3.87278      1.93817     15.57400        -0.601987      0.250474      0.346981
O       3.80092     13.68702      2.77446         0.533346     -0.405182      0.469611
O       3.83861     13.54440     15.79573        -0.451600      0.115062     -0.315632
O      15.33010      2.20629      2.51600        -0.456555      0.321696      0.277780
O      15.32486      2.20143     15.76392         0.261307     -0.491718      0.056041
O       0.03747     13.43976      2.70893        -1.356369      0.126265      0.449768
O       0.01619     13.27722     15.78939         0.712815      0.368039     -0.030419
O       3.86005      1.96791      7.13895        -0.985635      0.463445     -0.207124
O       3.82329     13.50617      7.02430        -0.397303     -0.289971     -0.171212
O      15.31620      2.11301      7.22223        -0.240528      0.266735     -0.709926
O       0.06761     13.51094      7.19646        -1.175060     -0.409661     -0.355234
O       3.87780      1.83089     11.36454         0.528239      0.588647      0.819240
O       3.81800     13.47085     11.51563         0.404640      0.027153     -0.194967
O       0.05602      1.93655     11.38320        -1.174628     -0.325114     -0.137077
O       0.08155     13.44834     11.31731        -0.914573     -0.098461     -0.214685
O       3.83003      5.86511      2.75942         0.358182     -1.066436     -0.556609
O       3.80793      5.80934     15.73701         1.026573     -0.199410      0.257745
O      15.33499      5.85296      2.74675         0.308575      0.185994     -0.514837
O       0.03989      5.64039     15.70444        -0.467818      0.680833      0.468476
O       3.83570      5.78029      7.09565         0.070689      0.042013     -0.751094
O      15.31010      5.92791      6.96132        -0.398977      0.076243      0.251085
O       3.87728      5.83619     11.61419         1.026302      0.411644     -0.737496
O       0.01440      5.70604     11.33135        -0.306962      0.059575      0.290159
O       3.76878      9.68715      2.70014         1.524571     -0.281323      0.146260
O       3.86675      9.47016     15.82813        -0.021466      0.688800     -0.538093
O       0.06486      9.58486      2.66551        -0.931348      0.229467      0.060360
O       0.06396      9.55766     15.96134        -0.034452     -0.182777     -0.697234
O       3.77766      9.60697      6.83975         0.193704     -0.013891      0.475493
O      15.28828      9.78966      7.00926         0.575551      0.145322     -0.039719
O       3.85844      9.60156     11.45647        -0.316405      0.284880     -0.228766
O      15.32739      9.75097     11.28534         1.134997      0.220135      0.712697
O       7.64655      1.98103      2.72941        -0.525744      0.594782     -0.314108
O       7.64912      2.21541     15.91398         0.841029     -1.009773      0.114965
O       7.64356     13.42049      2.77282        -0.779425      0.645340     -0.210050
O       7.59681     13.45292     15.81739         0.160148      0.084226     -0.014733
O       7.72902      2.01529      7.12254        -1.631685     -0.091353      0.459369
O       7.67987     13.52349      6.95334        -0.771817     -0.451263      0.748239
O       7.70349      2.00131     11.43618        -0.039769     -0.121062      0.131189
O       7.64741     13.43439     11.33427         1.460145     -0.278552     -0.132193
O       7.75674      5.93335      2.69790        -0.990934     -0.353395     -0.709857
O       7.67913      5.96982     15.99752         0.306953     -0.541675     -0.598136
O       7.68541      5.99012      7.10806         0.136069     -0.802447     -0.408526
O       7.76825      6.01683     11.32939        -0.911711     -0.428175      0.062293
O       7.67996      9.74812      2.41931        -0.091003      0.191182      0.483408
O       7.69324      9.60354     15.88846        -0.015371      0.215316      0.000464
O       7.71353      9.66669      6.95225        -1.061746      0.243934      0.280361
O       7.71297      9.66262     11.26433        -0.046754      0.275754      0.600262
O      11.53055      2.16058      2.69195        -0.345221     -0.744337      0.323326
O      11.48999      2.02096     15.67271         0.205807     -0.260585     -0.006459
O      11.47291     13.74665      2.70220         0.698643     -0.406557      0.070801
O      11.43708     13.65355     15.70625         0.905957     -0.246612      0.531002
O      11.46238      1.93304      7.07646         0.418515      0.288336     -0.194843
O      11.56318     13.71428      7.04357        -0.804355     -0.482489     -0.315765
O      11.54534      2.08469     11.57507         0.251021     -0.459367     -0.638918
O      11.56245     13.61647     11.38717         0.031409     -0.321184      0.128292
O      11.55529      5.89670      2.68551        -0.231896      0.365699      0.483846
O      11.51707      5.83175     15.69790        -0.729754      0.426482      0.014788
O      11.44000      6.01073      6.95626         0.586197     -0.540805     -0.025794
O      11.55107      5.81491     11.54642         0.108356     -0.059190     -0.006857
O      11.55099      9.77393      2.60598        -0.309848     -0.099598      0.834005
O      11.53171      9.69641     15.72693         0.448259      0.325503      0.220306
O      11.45022      9.73748      6.90459         1.129419      0.229469      0.048471
O      11.61805      9.82721     11.41347        -0.497711     -0.302433      0.474342
O       1.95000      3.79011      2.74460        -0.389264      0.715131     -0.425819
O       1.92558      3.90010     15.63830         0.336186     -1.356511      0.525839
O       1.79271      0.12887      2.69031         0.457835      0.442538      0.220483
O       1.83693      0.09514     15.72013         0.166112     -1.534877      0.132591
O      13.36886      4.02705      2.71745         0.270390     -1.640193      0.392091
O      13.53287      4.01990     15.76612        -0.922122     -0.782825     -0.446681
O      13.49812      0.22776      2.69998        -0.253437      0.482455     -0.033329
O      13.52102     15.47262     15.71722        -0.067375      0.449749      0.020669
O       1.81596      3.93061      7.19096         0.561158     -0.594761     -0.648978
O       1.90998     15.37723      7.22160         0.048495      0.566129     -0.219043
O      13.26083      3.98977      6.96756         0.134043      0.374963     -0.068284
O      13.42629      0.23214      7.19587         0.618991     -0.251656     -0.519556
O       2.02163      3.93829     11.45431        -0.023396     -1.823632      0.178662
O       2.04270      0.04409     11.35452        -0.630644     -0.804242     -0.080576
O      13.53200      4.03196     11.46017        -0.555375     -1.124747     -0.229543
O      13.51989     15.48569     11.63390        -0.657548      0.489750     -1.369878
O       1.95579      7.62803      2.67133        -0.557054     -0.226068     -0.649927
O       1.90179      7.59568     15.83082         0.005395      1.973042     -0.104777
O      13.41736      7.85154      2.57911         0.222756     -0.565442      0.671152
O      13.40114      7.71334     15.83340         0.491622      1.994423      0.414891
O       1.86933      7.63591      6.83212         0.020434      1.096561      0.583298
O      13.43790      7.87726      6.96606        -0.277011     -0.508710      0.317653
O       1.91800      7.66152     11.27413         0.273012      1.215597      0.888151
O      13.47028      7.83202     11.21040        -0.158955      0.273587      0.419470
O       1.91070     11.56485      2.69902         0.229911      0.294440      0.343964
O       2.11255     11.57874     15.70913        -0.438514     -1.407812      0.036616
O      13.40996     11.74611      2.76791         0.264954      0.175836     -0.310951
O      13.46912     11.62488     15.92724        -0.329333     -0.157928     -0.462738
O       1.90870     11.45058      7.03198        -0.412010      1.175992     -0.338416
O      13.43563     11.73987      6.95089         0.057240     -0.124626      0.126021
O       1.93911     11.52022     11.38415         0.105019     -0.619356      0.174389
O      13.52149     11.69691     11.40943        -0.057914      0.461731      0.052521
O       5.78690      3.90310      2.84777        -0.273277     -0.071062     -0.912687
O       5.80616      3.98617     15.80175        -0.502245     -0.000209      0.130014
O       5.71244      0.16285      2.62871         0.362142     -0.235436      0.300248
O       5.75527     15.42347     15.75519         0.436126      0.436147     -0.068266
O       5.79381      3.93565      7.10328         0.355259      0.201540     -0.196395
O       5.70143      0.08550      7.16301         0.493807      0.148976     -0.320361
O       5.79637      3.90119     11.48876         0.192151      0.751162     -0.369341
O       5.89610     15.35496     11.50706        -0.516630      1.084486     -0.154791
O       5.77091      7.78578      2.74638        -0.046911     -0.322647     -0.445250
O       5.70283      7.70025     15.80650         0.215423      0.858410      0.371199
O       5.68330      7.79912      7.00537         0.402613     -0.411145      0.010324
O       5.82453      7.83256     11.51753        -0.521102     -0.682899     -0.345897
O       5.63684     11.62372      2.68873         0.044394      0.195291      0.041850
O       5.72571     11.58849     15.74549        -0.413334     -0.741871      0.209828
O       5.68774     11.57192      7.09371         0.416336      0.073499     -0.129451
O       5.70597     11.62776     11.38632         0.117662     -1.544183      0.131641
O       9.63900      4.00642      2.72181        -0.185387     -0.910126     -0.115304
O       9.66862      3.94120     15.71836        -0.553880      0.553730      0.214258
O       9.52005     15.46045      2.74776         0.065133      0.929357      0.005625
O       9.38420     15.40315     15.76296         0.447028      1.050667      0.275843
O       9.59449      3.84775      7.13880         0.082843      1.867868     -0.306494
O       9.48566     15.39878      7.12426         0.274007      1.026750     -0.134864
O       9.54012      3.90585     11.41216         0.520217      0.336915      0.078017
O       9.61453     15.40495     11.47464        -0.024566     -0.395866      0.208909
O       9.57454      7.84226      2.85037         0.563666     -0.421518     -0.844878
O       9.64529      7.79943     15.89560         0.069198     -0.350469     -0.329937
O       9.62649      7.88080      6.91851        -0.263001     -0.977826      0.211366
O       9.82129      7.77181     11.38408        -0.464460      0.803850     -0.026527
O       9.68764     11.64537      2.79002        -0.283966      0.508372     -0.449365
O       9.56941     11.63077     15.84966         0.121070     -1.085174     -0.011817
O       9.53158     11.60898      6.90516         0.442454      0.964721      0.435171
O       9.72156     11.59291     11.52913        -0.469140      0.539926     -0.278375
