  # total energy = -7881.08556535 
CRSYTAL
PRIMVEC
    15.3600000000000000    0.2300000000000000    0.0000000000000000
     0.0000000000000000   15.3600000000000000    0.0000000000000000
     0.0000000000000000    0.0000000000000000    17.440000000000000
PRESSURE
0.871356 0.824067 -0.010233 -0.407248 0.00351 -1.53654
PRIMCOORD
320 1
Pb       3.80646      3.74983      4.49408        -0.336702      0.327348     -1.330547
Pb       3.85842      3.96786     17.32031        -0.533481     -0.192534      0.859408
Pb       3.71271     15.39421      4.29960         0.179782     -0.238754     -0.039684
Pb       3.75353      0.11313     17.35470         0.523660     -0.746521     -0.314621
Pb      15.20535      3.91516      4.25884         0.724448      0.007065     -0.183443
Pb      15.25036      4.09908     17.24643         0.746016     -0.119005      0.420278
Pb       0.00108     15.29132      4.32066        -0.472402      0.525336     -0.016319
Pb      15.33422     15.58328     17.41051        -0.009040     -0.028862     -0.364046
Pb       3.86217      3.96311      8.78459         0.101616      0.170166     -0.863085
Pb       3.82830     15.34270      8.77713        -0.648676     -0.240508     -0.583398
Pb       0.02365      3.89508      8.76290        -0.166563     -0.426661     -0.497655
Pb      15.35105      0.32794      8.69490         0.349791     -0.731416     -0.733099
Pb       3.86331      3.97837     13.00599        -0.344251     -0.139397      0.425878
Pb       3.88053      0.11562     13.05264        -0.066114     -0.259118     -0.208399
Pb       0.06439      3.86408     13.06729        -0.210629     -0.178498      0.091523
Pb       0.03272      0.00477     13.07526         0.079002     -0.551924      0.140408
Pb       3.77389      7.68473      4.32779         0.096782     -0.016295      0.013180
Pb       3.84133      7.86138     17.36236         0.073962     -0.277490      0.630191
Pb      15.34817      7.83565      4.22094         0.145561      0.018457      0.284714
Pb       0.04136      7.75231     17.37272        -0.238848     -0.925932      0.281239
Pb       3.70741      7.81274      8.63841         0.796197     -0.415330     -0.638960
Pb      15.33360      8.00528      8.63014        -0.416364     -0.334531     -0.340017
Pb       3.93303      7.94721     13.06889        -0.254985     -0.722463     -0.283080
Pb      15.30161      7.91751     13.00036         0.211903     -0.271759      0.076477
Pb       3.91157     11.62063      4.43414        -0.196864     -0.031409     -0.191129
Pb       3.81543     11.62759     17.37254         0.175690      0.167409     -0.057230
Pb      15.31065     11.76958      4.28764         0.145892     -0.257151      0.732910
Pb       0.06160     11.38383      0.00480         0.044638      0.720257     -0.449295
Pb       3.61588     11.60185      8.67548         0.506199      0.147263     -0.731834
Pb      15.16930     11.64972      8.69917         0.280932      0.915003     -0.282316
Pb       3.83668     11.60289     13.15049        -0.204269      0.067730     -0.855008
Pb       0.02877     11.47093     13.10222        -0.083527      0.459555     -0.471840
Pb       7.56528      3.83333      4.44755         0.429369      0.233566     -1.190021
Pb       7.63922      3.87622     17.42651         0.358098      0.695372      0.165447
Pb       7.48325      0.22275      4.40203         0.478224     -0.382515     -0.110035
Pb       7.54578      0.11434     17.38512        -0.068801     -0.714610     -0.383652
Pb       7.67306      4.03050      8.80388         0.371621      0.002806     -0.760658
Pb       7.54555      0.16974      8.79007         0.461006     -0.104279     -0.173546
Pb       7.70849      3.86375     13.05718         0.251906      0.090625     -0.454276
Pb       7.65134     15.46955     13.07798        -0.072460      0.062835     -0.683878
Pb       7.68440      7.87900      4.28586        -0.133579     -0.646041      0.045342
Pb       7.74732      7.88354      0.01015        -0.147539     -0.487193     -0.174817
Pb       7.67575      7.71028      8.63899         0.083649      0.179252     -0.670123
Pb       7.66388      7.66486     13.01082         0.040322      0.049891     -0.115337
Pb       7.72691     11.61685      4.24894        -0.259763     -0.011997      0.195387
Pb       7.80137     11.67096      0.01123        -0.126401      0.151137     -0.323145
Pb       7.51670     11.64144      8.67601         0.604558      0.133395     -0.116300
Pb       7.67395     11.38182     12.92697         0.246387      0.905050      0.105813
Pb      11.51275      3.91707      4.24620        -0.064186      0.164009     -0.067109
Pb      11.44328      3.91196     17.29524        -0.137996      0.236900      0.216606
Pb      11.38442      0.21388      4.25222         1.074144     -0.042180      0.565602
Pb      11.53722     15.42064     17.41750        -0.104486      0.361360     -0.349135
Pb      11.52035      4.10208      8.68752        -0.141163     -0.293784     -0.446034
Pb      11.58864     15.43775      8.75006         0.001774     -0.366044     -0.568947
Pb      11.61592      3.94587     13.04465        -0.199297     -0.684016     -0.515942
Pb      11.52129     15.32322     13.15552         0.028240      0.282412     -0.464965
Pb      11.49406      7.80411      4.26849         0.338950      0.302374     -0.243125
Pb      11.61392      7.86555     17.39571        -0.310205     -0.331157      0.275380
Pb      11.41539      7.83289      8.66779         0.354643      0.081362     -0.519871
Pb      11.52527      7.69617     13.03130        -0.374068      0.670452      0.361515
Pb      11.43559     11.83740      4.45196         0.376516     -0.475358     -0.398521
Pb      11.62228     11.54572      0.08917        -0.529770      0.170854     -0.436909
Pb      11.43397     11.60526      8.64711        -0.137604      0.625810     -0.091259
Pb      11.51941     11.54088     13.19171        -0.118462      0.423736     -0.934310
Ti       1.96589      1.94974      2.14815        -0.573800      0.579797      1.499467
Ti       1.93034      1.90698     15.40352        -0.653113      0.809308     -0.697679
Ti       1.83575     13.45298      2.36163         1.897128     -0.050475     -1.518043
Ti       1.88623     13.39075     15.34567         0.089710      0.024197      1.632668
Ti      13.49464      2.06588      2.22588         0.203715     -0.610866     -0.151331
Ti      13.44286      2.08540     15.32543         0.481646      0.223269      0.903658
Ti      13.41058     13.53927      2.30348         0.195349      1.058508      1.304211
Ti      13.42007     13.65225     15.41068         0.475431     -0.797286     -0.380682
Ti       1.91523      2.03113      6.68730        -1.122260     -1.446807      0.910950
Ti       1.90104     13.47039      6.66431        -0.147630      0.502032      1.625033
Ti      13.35768      2.18468      6.61622         1.029402     -1.458396     -1.501348
Ti      13.49283     13.66263      6.64312        -0.224902      0.781255     -0.454729
Ti       1.92379      1.93680     11.07192        -0.053140     -0.321648      0.282797
Ti       1.89462     13.44272     10.89884         0.068915     -0.117361     -0.176412
Ti      13.56564      2.03472     11.03514        -1.522246      0.562503      2.109231
Ti      13.46134     13.58502     11.17687        -0.036196      0.030469     -1.817265
Ti       1.90816      5.74353      2.31633         0.154485     -0.908088     -0.970152
Ti       1.89314      5.82197     15.35488        -0.489038     -1.455890      0.443508
Ti      13.44166      5.91045      2.22148        -0.491728      0.152484      0.310229
Ti      13.38875      5.94573     15.32165        -0.036316      0.177055      0.983706
Ti       1.85122      5.76726      6.68401         1.606404      0.521926     -0.061730
Ti      13.46818      5.97790      6.56896        -1.187414      0.533677      1.076567
Ti       1.90991      5.84117     11.00372        -0.404908     -0.278408      1.758152
Ti      13.37759      5.99467     11.10666         1.215066     -1.346107     -0.754329
Ti       1.95585      9.67930      2.38107         0.305693     -0.736955      0.202928
Ti       1.84976      9.53964     15.35125         1.143798      0.777212      0.929198
Ti      13.49316      9.76803      2.30032        -1.338349     -0.323473     -0.013603
Ti      13.40752      9.76948     15.37786        -0.019827     -0.389895      0.985629
Ti       1.85902      9.59384      6.62155         1.146444      0.877757     -0.941656
Ti      13.42496      9.84887      6.50876        -0.695701     -1.087693      0.511139
Ti       1.87053      9.63505     11.04530         0.345405      0.325457     -0.700736
Ti      13.42240      9.75535     10.97686        -0.654937      1.142573     -0.237047
Ti       5.72900      1.90519      2.24137        -0.330080      1.209823      0.075309
Ti       5.78760      2.04053     15.39245        -0.534090     -1.076412      0.012439
Ti       5.78358     13.50217      2.39148        -0.694828     -0.146891     -2.037095
Ti       5.75701     13.42289     15.22453        -0.220673      1.158140      1.782114
Ti       5.71077      1.95492      6.79313         0.121939     -0.279697      0.369504
Ti       5.84466     13.49735      6.72923        -2.061513     -0.230357      0.972394
Ti       5.71826      2.02088     11.07729         1.499805     -0.903511     -0.808045
Ti       5.78360     13.46092     10.96346        -0.150262      0.574810     -0.750047
Ti       5.78895      5.76369      2.42366         0.216857     -0.515588     -0.682677
Ti       5.72715      5.96042     15.42490         0.369366     -0.666696     -0.536027
Ti       5.76397      5.78949      6.58214        -0.352892      1.278315      1.554715
Ti       5.68146      5.84778     11.03545         0.784739     -0.227497      0.055229
Ti       5.75396      9.63067      2.32212        -0.819603     -0.002751      0.591525
Ti       5.79417      9.73151     15.29414        -0.734922      0.363314      1.274596
Ti       5.69775      9.64478      6.64528        -0.080351     -0.197516     -0.182841
Ti       5.72078      9.70661     10.93384         0.337260     -0.794183      2.151409
Ti       9.64125      2.00209      2.30353        -0.885878      1.474100      0.265374
Ti       9.58869      1.94801     15.31952         0.361074      0.690876      1.071296
Ti       9.59177     13.55360      2.39263        -0.076746     -0.056452      0.200766
Ti       9.58622     13.53737     15.28937        -0.286819     -0.672842     -0.690860
Ti       9.59651      1.98097      6.64378        -0.146070      0.470815      0.891017
Ti       9.58905     13.58413      6.61114         0.560546     -0.144092      1.250640
Ti       9.68426      1.92645     10.99396        -0.445912      1.067573     -0.300102
Ti       9.61507     13.55419     11.09235        -0.196586     -1.237685     -1.002488
Ti       9.60169      5.87643      2.37086        -1.130879     -0.977291     -1.367162
Ti       9.60916      5.89373     15.31615        -0.592089     -0.911347      1.383872
Ti       9.67328      5.88316      6.54542        -0.823783     -0.063674      2.975200
Ti       9.64907      5.87723     11.08576        -1.955231     -0.745892      0.222212
Ti       9.62452      9.70379      2.31278         0.866735      0.309287     -0.077222
Ti       9.61741      9.67598     15.30522         0.089766      0.830848      1.072572
Ti       9.58212      9.71359      6.54826        -0.167997     -0.147341      0.175121
Ti       9.62418      9.69759     11.03762        -0.592781      0.453705      0.404967
O       1.99396      2.06971      0.42491        -0.298888     -0.741206     -0.855464
O       1.94635      2.00709     13.58646         0.212695     -0.402750      0.715085
O       1.81217     13.31562      0.54707         0.032579      0.085403      0.825893
O       1.93244     13.22642     13.63181        -0.059822      0.431316     -0.826245
O      13.44682      1.96760      0.43072        -0.068586      0.155099      0.625955
O      13.52396      2.14572     13.59649        -0.303760     -0.119526     -0.864347
O      13.34453     13.65583      0.56209         0.182104     -0.185179     -0.843387
O      13.44797     13.66218     13.61305        -0.216325     -0.551213      0.391167
O       1.82442      2.07651      4.94285         0.593081     -0.301605     -0.245935
O       1.81625     13.59013      4.92333         0.305236     -0.086914     -1.213676
O      13.42204      2.15540      4.72330        -0.103510     -0.001507      1.805825
O      13.56700     13.60331      4.83820        -0.419076     -0.112261      0.222807
O       1.79509      1.96147      9.32964         0.055537      0.163184     -0.025475
O       1.91967     13.57807      9.11760        -0.512119     -0.961793      0.559376
O      13.57631      1.99930      9.33493        -0.010150      0.400549     -1.532994
O      13.38142     13.72633      9.35780         0.269925     -0.429597      0.771074
O       1.77165      5.73010      0.53213        -0.015852      0.109270      0.847604
O       1.81893      5.74879     13.59043         0.370825      0.243034     -0.038568
O      13.34424      6.04471      0.46161         0.410651     -0.276157      0.487262
O      13.40297      5.93620     13.56347        -0.373732      0.253708     -1.112155
O       1.98815      5.81754      4.96561        -0.322105     -0.504779     -1.166488
O      13.31789      5.77914      4.87315         0.224968      0.457755     -1.074211
O       1.97723      5.77998      9.27076        -0.334761      0.230413     -0.666749
O      13.35122      5.93331      9.35998         0.103871     -0.075728     -0.551205
O       1.80475      9.55882      0.60040         0.442060      0.227395     -0.170097
O       1.90346      9.66925     13.62943        -0.040227     -0.362347     -1.350496
O      13.32701      9.74018      0.49825         0.738927     -0.029683      0.103198
O      13.41914      9.74903     13.64844        -0.295353      0.121259     -1.342723
O       1.97278      9.55371      4.85963        -0.118333      0.079239     -0.619693
O      13.37655      9.90000      4.76064         0.079681     -0.115141      0.036826
O       1.85880      9.62753      9.22390        -0.208529     -0.290096      0.771758
O      13.46117      9.84925      9.19133         0.349507     -0.485096      0.225348
O       5.69246      1.94153      0.44486         0.386066     -0.458638      0.171059
O       5.85513      2.00559     13.60974        -0.614460     -0.075479     -0.112971
O       5.81518     13.52485      0.55842        -0.003791      0.184709      1.266086
O       5.55413     13.37912     13.49493         0.268199      0.079793     -0.839189
O       5.74235      1.91469      5.02462        -0.442857      0.256677     -0.147214
O       5.71899     13.59866      4.99224         0.119182     -0.212206     -1.268762
O       5.78577      1.87183      9.28197        -0.006298      0.392018     -0.262232
O       5.91465     13.46123      9.05495        -0.220245     -0.043698      2.398362
O       5.97248      5.66240      0.64568        -0.262723      0.585569     -0.503677
O       5.62748      5.88677     13.66489        -0.106904      0.018806      0.041253
O       5.76595      5.69197      4.84909        -0.136155     -0.064452     -0.735660
O       5.59072      5.77201      9.27693         0.759950      0.290870      0.140538
O       5.51781      9.52732      0.60256         0.903847      0.465895     -0.473239
O       5.58890      9.81144     13.52312         0.608398     -0.584621      0.602429
O       5.51500      9.78367      4.88114         0.718664     -0.319049     -0.049468
O       5.75531      9.59676      9.25305         0.050881      0.267072     -1.850606
O       9.64043      2.11624      0.55161        -0.175443     -0.588294     -0.175681
O       9.55844      1.96789     13.60344        -0.030347      0.019959     -0.966582
O       9.62129     13.40640      0.66649        -0.167583      0.765285     -0.950288
O       9.67665     13.46946     13.45919        -0.220784      0.103696      1.570821
O       9.56204      2.04526      4.88832         0.304779     -0.227370     -0.298298
O       9.57348     13.49878      4.86104         0.360314      0.105465     -0.868901
O       9.51093      1.89280      9.20760         0.033607      0.332851      0.274744
O       9.70712     13.36661      9.28841        -0.334825      0.740503      0.395258
O       9.51495      5.74731      0.55913        -0.123092      0.340030      0.475499
O       9.63004      5.95254     13.59309         0.251337     -0.400635     -0.938395
O       9.71741      5.96657      4.86440        -0.068896     -0.004445     -1.979953
O       9.48163      5.93609      9.31667         0.270302     -0.403019      0.236536
O       9.58340      9.80853      0.54219        -0.217511     -0.360004     -0.398323
O       9.67108      9.79606     13.52712        -0.016211     -0.227661      0.717741
O       9.60067      9.74411      4.76119         0.255900     -0.102400      0.192016
O       9.63003      9.65859      9.31696        -0.184905     -0.077853     -1.380824
O       3.83847      2.03082      2.71910         0.202075     -0.824548      0.070397
O       3.75101      1.97043     15.86981         1.285750     -0.309587     -0.616380
O       3.83686     13.58905      2.77270        -0.302289     -0.412187      0.085879
O       3.80367     13.42905     15.73932        -0.275274     -0.343494      0.095950
O       0.02924      1.89511      2.61712        -0.359199      0.323947     -0.171014
O       0.00396      1.84181     15.76803         0.006701      0.254526      0.212875
O       0.04486     13.37048      2.84914        -1.088831     -0.394222     -0.783321
O      15.31407     13.55512     15.79739         0.011514      0.098159      0.058963
O       3.75489      1.94559      7.18927         1.100942      0.623874     -0.291173
O       3.77968     13.45685      7.05512         0.429788     -0.231073      0.208997
O       0.00443      1.95127      7.08783        -0.759843      0.021456      0.174921
O      15.32225     13.67296      7.09769         0.198930     -0.235861      0.191761
O       3.86263      1.96066     11.45398        -0.999847      0.108979      0.207348
O       3.80025     13.34648     11.05407         0.936606     -0.105000      0.894207
O       0.07886      1.80547     11.62099        -0.637696      0.115446     -0.791223
O       0.03332     13.42319     11.48944        -0.585525      0.176682      0.092354
O       3.84640      5.71112      2.57675        -0.524004      0.411917      0.513496
O       3.75888      5.74374     15.84059         0.917373      0.574290     -0.506696
O      15.27882      5.89396      2.76705         0.299309      0.068799     -0.230225
O      15.22476      6.06571     15.64932         1.509916     -0.128744      0.471268
O       3.82347      5.79795      7.05435        -0.095333     -0.460248      0.263810
O      15.31495      6.06374      6.98733         0.215640     -0.185836      0.606284
O       3.85655      5.74672     11.46158        -1.150750     -0.146477     -0.108909
O      15.28870      6.16175     11.36360         0.822639     -0.268212      0.127015
O       3.88343      9.45946      2.75127        -1.076477      0.523356     -0.239777
O       3.79268      9.62066     15.72842         0.573190     -0.038179      0.062785
O       0.01937      9.73766      2.66408        -0.005576     -0.559714      0.075068
O      15.35177      9.65357     15.64144        -0.253977      0.186043      0.595699
O       3.83059      9.72092      7.09078        -0.452780     -0.426633      0.368989
O       0.00433      9.41530      6.94626        -1.110403      0.800547      0.343961
O       3.83089      9.67755     11.42366        -0.475213     -0.037550     -0.266223
O      15.30379      9.80632     11.38133         0.462809     -1.082882      0.245273
O       7.58074      1.97718      2.70428         0.891554     -0.434482      0.040192
O       7.65501      1.83723     15.77589        -0.152256      0.577255     -0.025461
O       7.69952     13.52113      2.83351        -0.168472      0.142226     -0.252637
O       7.68404     13.43032     15.69825        -0.231882      0.652612     -0.101635
O       7.65718      1.83763      6.92511        -0.287233      0.539941      0.732751
O       7.67067     13.54421      7.00041         1.291834     -0.286940      0.160294
O       7.61974      1.89504     11.39301         0.514859     -0.076332      0.466441
O       7.64917     13.57783     11.40198        -0.268806      0.200479      0.003671
O       7.74641      5.77900      2.83113        -0.394708      0.201841      0.466041
O       7.58603      5.95006     15.57329         0.978938     -0.520275      0.664726
O       7.68897      5.96046      7.02371        -0.267836     -0.673773      0.039164
O       7.71675      5.82697     11.65247        -0.700959     -0.001805     -0.867897
O       7.66011      9.72351      2.60850        -0.229928      0.245726      0.410324
O       7.64705      9.73717     15.81737         0.638190     -0.178319     -0.538326
O       7.65793      9.53063      6.78883         0.476433      0.662739      0.709146
O       7.67313      9.53693     11.38318        -0.747659      0.261115      0.265324
O      11.51878      2.04778      2.68042         0.308734     -0.362200     -0.118446
O      11.58334      2.06227     15.72389        -1.035010     -0.418973     -0.049405
O      11.58822     13.57315      2.80396        -0.619546      0.573662     -0.086016
O      11.49498     13.62235     15.74946         0.271175     -0.176447      0.060210
O      11.51911      2.03770      7.07473        -0.175948      0.290301     -0.017789
O      11.57488     13.61605      7.14452        -0.573846     -0.423878     -0.460157
O      11.56430      2.11730     11.26134         0.150693     -0.001938      0.389437
O      11.46438     13.46615     11.49479         1.027616     -0.045155      0.365763
O      11.47156      5.95884      2.69196         1.107703      0.027370      0.057137
O      11.46849      5.82408     15.75852         0.030767      0.204136     -0.219876
O      11.53909      5.89076      7.10687         0.024378      0.073863      0.100834
O      11.45797      5.82740     11.43261         0.804290     -0.158800      0.429307
O      11.51149      9.54814      2.51094         0.121771      0.556085      0.551417
O      11.50318      9.70869     15.82695        -0.974973      0.525033     -0.496950
O      11.49379      9.58774      7.04597         0.173301      1.107260     -0.390829
O      11.48547      9.86307     11.30199         0.896830      0.138657      0.715120
O       1.92211      3.75286      2.70975        -0.178640      1.293800      0.210358
O       1.85709      3.84954     15.81598        -0.273844      0.554702     -0.472701
O       1.87819     15.37580      2.58004         0.080965      0.069448      0.228212
O       1.87901     15.31258     15.75103         0.100339      0.158047     -0.023675
O      13.37345      3.98976      2.57802         0.014015      0.379502     -0.108235
O      13.44121      4.04480     15.74789        -0.087140     -0.303741     -0.248768
O      13.62694     15.51846      2.59345        -0.843888     -0.270063      0.157751
O      13.49554     15.53914     15.68183        -0.292542     -0.711675      0.478298
O       1.82204      3.90344      7.15915         0.363225     -0.089513      0.123847
O       1.92961     15.36196      7.18478        -0.207113      0.980359     -0.581296
O      13.35699      3.99452      6.96703         0.409064      0.726166      0.755254
O      13.42439     15.54434      6.95940         0.126378      0.854977      0.409689
O       1.77317      3.86235     11.43192         0.554683      0.434608     -0.340452
O       1.92533     15.26004     11.38057         0.413439      1.392387      0.531937
O      13.52020      4.02138     11.46244        -0.001448     -0.170581     -0.053280
O      13.34540     15.48572     11.55312         0.518597      0.822098      0.020169
O       1.81354      7.62146      2.72617         0.148559      0.577763      0.064777
O       1.98437      7.61818     15.92298        -0.716754      1.080464     -0.772655
O      13.51741      7.90031      2.70435         0.047541     -0.919852     -0.003420
O      13.33389      7.86752     15.78813        -0.028720     -0.336408     -0.174085
O       2.04409      7.74028      6.92037        -0.525647     -0.864563      1.144490
O      13.37544      7.90686      6.86664         0.407974     -0.505224      0.299615
O       1.96033      7.68168     11.51448        -0.066034      0.647358     -0.326452
O      13.23072      7.87428     11.38712         0.439012      0.563340      0.284117
O       2.01372     11.53052      2.76316         0.072955     -0.078093     -0.035734
O       1.86952     11.43199     15.80113        -0.237849      0.136043      0.250457
O      13.30693     11.63569      2.65109         0.490712      0.769556     -0.054484
O      13.43230     11.60673     15.85335        -0.106470      0.900951     -0.216937
O       1.91369     11.51819      6.91042        -0.503342     -0.047776      0.588597
O      13.46843     11.74212      6.99945        -0.062397     -1.309642      0.134780
O       1.77501     11.50325     11.39966         0.382223     -0.509739     -0.115614
O      13.59518     11.68900     11.36021        -0.687184     -0.536136      0.480169
O       5.80398      3.83495      2.72440        -0.099152     -0.380350      0.532336
O       5.69953      3.84966     15.75563         0.448350      0.929345     -0.062458
O       5.73024     15.39483      2.74937         0.116553      0.839280      0.144578
O       5.64792     15.32963     15.62399         0.286684      0.537177      0.415277
O       5.73670      3.97979      7.19381         0.386566     -1.750989     -0.207604
O       5.64383     15.36742      7.20994         0.434726      1.128901     -0.353001
O       5.78279      3.88964     11.28969        -0.000803      0.160662      0.686183
O       5.71019     15.37250     11.49148        -0.403135     -0.324651     -0.077055
O       5.86165      7.65828      2.80195        -0.225185      1.000648     -0.211284
O       5.79591      7.87325     15.85108        -0.557709     -0.751970     -0.392158
O       5.69111      7.72653      7.01846        -0.178898      0.083076      0.066073
O       5.69284      7.67519     11.43254         0.118771      1.215971      0.129567
O       5.69245     11.63465      2.67986         0.086267     -1.012915      0.400750
O       5.70234     11.62304     15.82076         0.005762     -1.309611     -0.265226
O       5.70724     11.56383      7.15029         0.586828     -0.082243     -0.291881
O       5.84026     11.56155     11.41956        -0.106856      0.264099     -0.706179
O       9.55391      3.90701      2.77857         0.347497     -0.116427      0.020050
O       9.59160      3.85159     15.76003        -0.522993      0.747287     -0.326595
O       9.66209     15.47946      2.72192        -0.414585     -0.037265     -0.231106
O       9.57516     15.42776     15.66695         0.180531     -0.317274      0.526228
O       9.57801      4.00917      7.05251        -0.149525     -0.819740      0.170186
O       9.65513     15.42306      6.92569        -0.053177      0.576406      0.204408
O       9.52033      3.83338     11.51407         0.212422      0.820979     -0.347481
O       9.69769     15.46835     11.50836        -0.334812     -0.345074     -0.130828
O       9.51271      7.84171      2.68948        -0.115283     -0.809671      0.100926
O       9.65063      7.76134     15.69091        -0.534917      1.067654      0.165227
O       9.63038      7.75326      7.13954        -0.139990      0.589321     -0.373018
O       9.61404      7.75387     11.52747         0.325977      0.162879     -0.192897
O       9.68098     11.66900      2.64915        -0.152322     -0.787301      1.013426
O       9.55162     11.65519     15.83980         0.664229     -0.628601     -0.614151
O       9.71064     11.62782      6.90066        -0.430030     -0.689430      0.261549
O       9.38278     11.62540     11.38039         0.517168     -0.701352      0.224203
