  # total energy = -7880.41708467 
CRSYTAL
PRIMVEC
    15.3600000000000000    0.2300000000000000    0.0000000000000000
     0.0000000000000000   15.3600000000000000    0.0000000000000000
     0.0000000000000000    0.0000000000000000    17.440000000000000
PRESSURE
3.45514 3.35004 7.85981 0.008215 -0.380186 -1.54207
PRIMCOORD
320 1
Pb       3.90371      3.85587      4.21406        -0.762215      0.029507      0.712902
Pb       3.79393      3.91771     17.31943        -0.626277     -0.211818      0.244800
Pb       3.71567     15.37352      4.46330         0.640838     -0.021662     -0.389050
Pb       3.76963     15.29633      0.01461         0.108333      0.737346     -0.230307
Pb       0.09061      3.73754      4.16059        -0.177104      0.728447      0.906042
Pb      15.34302      3.96061     17.32812         0.488060      0.744319     -0.160913
Pb      15.30335     15.58248      4.38030         0.053171      0.162506      0.032576
Pb      15.28265     15.48484     17.34877         0.078712      0.476631     -0.180655
Pb       3.88953      3.87991      8.63299        -0.233077      0.181179      0.390912
Pb       3.79732      0.12439      8.78350        -0.213053     -0.255636     -0.237842
Pb       0.07048      4.14737      8.73494        -0.566509     -1.177424     -0.120386
Pb       0.04647     15.26761      8.69121         0.201642      0.314609      0.326359
Pb       4.00257      3.96039     12.98774        -0.719425     -0.118748      0.320706
Pb       3.81496      0.16796     13.08695        -0.046405     -0.562634     -0.152558
Pb      15.34900      4.14861     12.96509         0.033414     -0.685642      0.610030
Pb       0.00982      0.05600     13.04373        -0.229337     -0.118197      0.186913
Pb       3.88290      7.72487      4.35143        -0.631643      0.032162      0.412923
Pb       3.84367      7.82026     17.33259        -0.784141     -0.277215      0.341528
Pb      15.21256      7.77171      4.29731         0.753641      0.065270      0.145407
Pb      15.30741      7.93794     17.35481         0.315397     -0.648168     -0.432525
Pb       3.73468      7.66552      8.59051         0.258961      0.650380     -0.261601
Pb      15.22782      7.97061      8.73391         0.035621      0.267980     -0.672988
Pb       3.81684      7.72936     12.91383         0.218612      0.249766      0.711143
Pb       0.01408      7.66547     12.98354        -0.266548      0.344391      0.698970
Pb       3.82654     11.56080      4.18424         0.402457     -0.006948      0.579356
Pb       3.80047     11.62148     17.38641         0.249644     -0.393319      0.044669
Pb       0.03652     11.58781      4.19947         0.026005     -0.332124      0.948966
Pb       0.12497     11.50753      0.06789        -0.625358     -0.186747     -0.323151
Pb       3.70688     11.56110      8.57131         0.224916      0.074630      0.591250
Pb      15.29627     11.78489      8.56200         0.262730     -0.235432      0.378889
Pb       3.78370     11.51939     12.90841         0.694478      0.086079      0.548875
Pb       0.05310     11.38473     13.01073        -0.658593      0.107618      0.606839
Pb       7.55244      3.84569      4.33395         0.577000     -0.154701     -0.007318
Pb       7.60739      3.97069     17.34287        -0.117690     -0.076224      0.811011
Pb       7.47900     15.44405      4.36481         0.639813      0.021161      0.004422
Pb       7.71009      0.20228     17.37662        -0.351267     -0.653883      0.542026
Pb       7.61100      4.04601      8.60440        -0.071124     -0.790984      0.333344
Pb       7.66822     15.38916      8.68171        -0.178997      1.018441      0.530369
Pb       7.67552      3.85903     12.96356        -0.114729      0.446349      0.628069
Pb       7.62854     15.24940     13.10162         0.366013      0.747594     -0.005213
Pb       7.75642      7.68783      4.41108        -0.391778      0.442048     -0.386608
Pb       7.78467      7.84166      0.07713        -0.343316     -0.743708      0.214099
Pb       7.82242      7.83183      8.62223        -0.653138      0.195129     -0.202788
Pb       7.63298      7.80320     12.99536         0.333482     -0.181950      0.398814
Pb       7.72233     11.85526      4.39877        -0.235913     -0.873787     -0.215441
Pb       7.69506     11.54250      0.02524        -0.108193      0.321504     -0.030937
Pb       7.58498     11.72752      8.80589        -0.162501     -0.326175     -0.590203
Pb       7.73403     11.62642     13.19115        -0.202336     -0.001856     -0.400745
Pb      11.47720      4.04402      4.41587         0.446855     -0.477564     -0.511720
Pb      11.48478      3.91431      0.01447        -0.281483      0.627903      0.059580
Pb      11.58251      0.22444      4.20404        -0.112586      0.194235      0.757629
Pb      11.41214     15.33532      0.06865         0.063828      0.478661     -0.467106
Pb      11.47806      3.97344      8.70290         0.219908     -0.031963      0.584958
Pb      11.55735     15.52009      8.69816        -0.270042      0.143331      0.751913
Pb      11.51714      4.00969     13.08727        -0.012023     -0.485266     -0.386040
Pb      11.61724     15.34471     12.96603        -0.806418      0.436015      0.242964
Pb      11.37653      7.95752      4.22322         0.432268     -0.660810      0.098602
Pb      11.55809      7.76110     17.40240        -0.213712     -0.495703     -0.035412
Pb      11.51252      7.78972      8.58673        -0.225235      0.396913      0.271160
Pb      11.49193      7.73145     13.07434        -0.146033      0.247740      0.004585
Pb      11.64444     11.57772      4.24143        -0.797172      0.435013      0.028352
Pb      11.59833     11.67935     17.32250        -0.830384     -0.407274      0.653854
Pb      11.41733     11.69169      8.47340        -0.107576     -0.232293      1.122833
Pb      11.55586     11.59358     12.98463        -0.169968      0.706846      0.671439
Ti       1.96564      1.94795      2.38104         0.097465     -0.774663      0.400868
Ti       1.87757      1.92896     15.27706        -0.006593      0.495403      1.504855
Ti       1.93853     13.53975      2.37609         0.515372     -0.531021      3.003677
Ti       1.86458     13.47136     15.38451        -0.240653     -0.166577      0.176345
Ti      13.50168      2.16330      2.31476        -0.534730     -0.417319      0.499443
Ti      13.40234      2.13443     15.46562        -0.475968     -0.746719      0.412295
Ti      13.42693     13.59251      2.33324         0.468281      0.728137      1.633000
Ti      13.36779     13.55444     15.41803         0.157825      0.158395      0.091804
Ti       1.85363      1.95873      6.71224         0.515465     -0.429600      0.888664
Ti       1.90962     13.45717      6.60111        -0.092196     -0.320921      2.835827
Ti      13.49830      2.09491      6.80876        -0.035963      0.471735      0.037383
Ti      13.40307     13.69023      6.71733         0.422150     -0.650246      0.530800
Ti       1.88315      1.90313     11.10053        -0.573688      0.566230      1.644542
Ti       1.82544     13.38157     11.17426         0.578464      0.930172     -0.022632
Ti      13.44592      2.09789     11.06957        -0.596057      0.239425      1.317473
Ti      13.45436     13.57543     11.08668        -1.067512     -0.245451      0.920159
Ti       1.95240      5.82042      2.28121        -1.031294      0.338960      1.345288
Ti       1.88303      5.84204     15.26818        -0.849697     -0.352158      2.087707
Ti      13.45667      5.90615      2.27202        -0.139900      0.327266      0.450209
Ti      13.37294      5.87857     15.39965         0.303965      1.095664      1.279644
Ti       1.85567      5.77337      6.66122         0.492707      0.926441     -2.032226
Ti      13.36125      5.91960      6.60619         0.901982     -0.058730      1.231354
Ti       1.91313      5.75861     11.09315         0.059188     -0.425219      3.210931
Ti      13.43232      5.95515     11.08193        -0.597389     -0.367447      3.077465
Ti       1.83675      9.58087      2.38874         0.608209     -0.257358      0.795671
Ti       1.87282      9.66514     15.34802        -0.095360     -0.921096      0.772885
Ti      13.43551      9.74503      2.33765        -0.359028     -0.330143      0.348820
Ti      13.41961      9.75107     15.46083        -0.254031     -0.246613      0.860023
Ti       1.84194      9.65033      6.56237         0.719243     -0.600023      1.374085
Ti      13.36287      9.82969      6.60383         0.134693     -0.767695      1.086663
Ti       1.96613      9.58947     11.03379        -0.571229      0.338285      0.758995
Ti      13.32584      9.76734     11.11571         1.087783     -0.426677      1.236610
Ti       5.74920      1.90251      2.36497         0.119083     -0.532935      0.339644
Ti       5.66572      1.97757     15.47754         0.078270     -0.443033      1.146124
Ti       5.83463     13.46257      2.28613        -0.378478      0.388286      1.627462
Ti       5.71303     13.48494     15.42164         0.174382     -0.030142      2.236034
Ti       5.73252      1.96881      6.70810         0.297287      0.094646      2.118060
Ti       5.70166     13.55838      6.81004        -0.369928     -0.195347      1.042232
Ti       5.73070      1.98974     11.08938         0.543707     -0.253124     -0.131601
Ti       5.66348     13.54968     11.05508         0.140871     -0.256668      0.684748
Ti       5.69736      5.78464      2.43040         0.693550      0.429706      0.395388
Ti       5.61817      5.87539     15.47328         0.652882     -0.424499      0.211085
Ti       5.71719      5.83537      6.66149        -0.236885      0.541766      0.771251
Ti       5.74355      5.91756     11.01014        -0.003513     -0.528844      1.128024
Ti       5.73740      9.60332      2.39309         0.763026      1.064440      2.158075
Ti       5.75068      9.63898     15.44701        -0.442492      0.450150      0.600897
Ti       5.67570      9.68615      6.74141         0.516481      0.102915      1.687850
Ti       5.80516      9.68640     10.93670        -0.714528      0.571211      0.804910
Ti       9.63199      2.00060      2.38581        -0.215001     -0.148830      1.315029
Ti       9.56650      2.03854     15.45793         0.008468     -0.355272      2.208108
Ti       9.65997     13.57722      2.41337        -1.234599     -0.551497     -0.152966
Ti       9.46541     13.52915     15.47910         1.304902     -0.566378     -0.292432
Ti       9.65541      2.09395      6.78080        -1.049425     -0.815450     -0.147747
Ti       9.60027     13.68291      6.66690        -0.569255     -0.206999      0.675446
Ti       9.50806      2.03007     11.13992         1.144935     -0.720639     -0.233167
Ti       9.53420     13.53872     11.00662         0.809932      0.578572      2.454105
Ti       9.56177      5.70246      2.39894         0.378028      0.991905     -0.742230
Ti       9.43467      5.79466     15.45461         0.946663      0.392211      1.241574
Ti       9.59774      5.84248      6.68392        -0.294425      0.897490      1.273803
Ti       9.58360      5.85401     11.04282        -0.196635      0.415980      0.420405
Ti       9.45695      9.70828      2.43119         0.990003      0.357605      2.268222
Ti       9.58842      9.60219     15.52508        -0.164199      0.553303      1.464247
Ti       9.48888      9.82983      6.59122        -0.411782     -1.031980      0.349641
Ti       9.53948      9.77843     11.07914         0.003048     -0.899971      0.556192
O       1.94673      1.76774      0.69684        -0.111154      0.125253     -1.634793
O       1.80779      1.90260     13.55883         0.292608     -0.074662     -0.802252
O       1.82101     13.57950      0.71864        -0.138411     -0.122851     -3.478113
O       1.89361     13.38836     13.67125         0.070477     -0.049793     -1.351341
O      13.57629      2.05201      0.59678        -0.266408      0.262882     -1.445313
O      13.32263      2.34014     13.76853         0.132922     -0.737793     -1.187094
O      13.36870     13.66686      0.64889         0.533619     -0.015952     -2.078993
O      13.20863     13.53367     13.69373         0.208638     -0.105487     -0.915041
O       1.88744      1.90667      4.99528         0.398872      0.030289     -1.440944
O       1.93818     13.38565      4.93472         0.056749      0.201394     -3.059848
O      13.45368      2.05917      5.09329        -0.189610      0.127501     -1.158175
O      13.39397     13.63503      5.02254        -0.074281      0.046927     -1.934183
O       1.78429      1.77652      9.42117         0.166352      0.182541     -2.543966
O       1.85445     13.37929      9.45908        -0.289802      0.154890     -1.236576
O      13.51871      1.96918      9.39828        -0.092100      0.062147     -2.782452
O      13.46346     13.59933      9.39070         0.007737     -0.060518     -2.220108
O       1.84138      5.84811      0.59045         0.287390      0.005956     -1.533343
O       2.00068      5.80891     13.57568         0.039707     -0.181729     -2.432547
O      13.50572      5.89983      0.53344        -0.090409      0.167884     -0.832442
O      13.33789      5.83604     13.68066        -0.191040      0.133418     -1.428256
O       1.91461      5.84971      4.88920        -0.329152     -0.393713      0.781871
O      13.35048      5.92587      4.90560         0.147032      0.141858     -1.248526
O       1.78759      5.69362      9.44155        -0.083712      0.598560     -4.042871
O      13.45801      6.17782      9.44208         0.322826     -0.012129     -3.865600
O       1.73156      9.63153      0.65413         0.046300     -0.212390     -0.938008
O       1.98564      9.70029     13.62974         0.131969      0.228806     -1.100040
O      13.51352      9.76106      0.62625         0.094205     -0.223033     -1.403119
O      13.30713      9.72713     13.77970        -0.302090      0.140824     -2.672156
O       1.97509      9.67739      4.86598        -0.046773     -0.003345     -1.584595
O      13.16374      9.69801      4.89947         0.479505      0.301179     -0.839139
O       1.87338      9.68778      9.34654        -0.228962     -0.211441     -1.885739
O      13.41003      9.64988      9.42064        -0.017151      0.094767     -1.979425
O       5.61646      1.95043      0.66817         0.235860     -0.061684     -1.732035
O       5.75450      1.95461     13.78896        -0.111944      0.117630     -1.874317
O       5.80006     13.35372      0.59982        -0.041884      0.175315     -2.176212
O       5.78872     13.47436     13.73777        -0.054200     -0.024530     -2.376472
O       5.69131      1.82346      5.01796        -0.286401      0.285803     -2.311696
O       5.69437     13.64177      5.11254         0.407770     -0.148772     -1.898608
O       5.82280      2.01199      9.35073        -0.428108      0.029292     -0.513146
O       5.71883     13.69505      9.33884         0.066680     -0.246335     -1.162614
O       5.62680      5.69651      0.73920        -0.012034      0.344716     -1.846368
O       5.62072      5.80086     13.76691        -0.054804      0.217841     -1.839381
O       5.68569      5.79525      4.95481         0.017697     -0.206813     -1.990435
O       5.64588      5.78220      9.33660         0.214844      0.070889     -2.530164
O       5.84483      9.64477      0.71382        -0.097364     -0.037922     -2.433838
O       5.77692      9.62723     13.73449        -0.047047      0.119775     -0.885633
O       5.67235      9.74018      5.07497        -0.170363      0.098946     -2.934438
O       5.83415      9.57626      9.23475         0.118533      0.244285     -1.438952
O       9.58372      2.02463      0.70495        -0.123783      0.162354     -2.613385
O       9.53838      2.12144     13.80237         0.057764     -0.013199     -3.008625
O       9.53083     13.49580      0.69618         0.106275      0.171992     -1.625557
O       9.47457     13.42863     13.72787         0.144848      0.256497     -0.811091
O       9.79295      2.05634      5.06739        -0.119277      0.036875     -0.936106
O       9.53706     13.78978      4.95492         0.255644     -0.412270     -0.658389
O       9.45945      2.04228      9.42455         0.033905      0.041823     -1.593178
O       9.49023     13.51697      9.31585        -0.001784      0.050957     -2.041180
O       9.52003      5.73200      0.65527        -0.113904     -0.145332     -0.265542
O       9.43965      5.86383     13.76339         0.331756     -0.094762     -2.472853
O       9.71940      5.78885      4.99749        -0.154334     -0.081242     -2.346835
O       9.62180      5.88781      9.31175        -0.256158      0.004021     -1.047103
O       9.41545      9.59668      0.76074        -0.099651      0.220069     -3.661380
O       9.42957      9.56774     13.85682         0.171839      0.320751     -2.514865
O       9.58668      9.69129      4.85183         0.146632      0.079845     -0.463194
O       9.38409      9.74504      9.36820         0.281522     -0.031239     -1.258913
O       3.87466      1.83406      2.76379        -0.621681      0.450695      0.665262
O       3.72260      1.83976     15.79602         0.621789      0.306992      0.109119
O       3.90405     13.41863      2.64861        -1.115719      0.277311      0.275639
O       3.76703     13.45562     15.86426         0.279479     -0.188876      0.104010
O       0.02971      1.88475      2.71145         0.100934      0.023228      0.576858
O       0.00649      1.90974     15.75740        -1.073247     -0.447308      0.375576
O       0.03443     13.50241      2.87177        -0.857699     -0.361582     -0.524147
O      15.30947     13.58279     15.71112        -0.176541      0.215448      0.663138
O       3.75974      2.03539      7.28892        -0.111648     -0.490996     -0.538334
O       3.77172     13.53002      7.02053         0.111289     -0.487054      0.750753
O       0.02337      1.82112      7.01447        -0.762310     -0.107155      0.884697
O      15.33824     13.60760      6.99317        -0.415872      0.116983      0.614655
O       3.81024      1.91572     11.51168         0.249876      0.166288     -0.157574
O       3.76186     13.56887     11.43925         0.455993     -0.245605      0.488090
O      15.31960      2.07284     11.48089        -0.059982      0.276358      0.673515
O      15.27932     13.50307     11.43237         1.079015      0.431510      0.773328
O       3.79135      5.78182      2.77485         0.938261     -0.041583      0.255147
O       3.68201      5.79981     15.84203         1.404503      0.070094      0.555834
O       0.01698      5.86488      2.64151        -0.119927     -0.415984      0.618356
O       0.02052      5.75603     15.69257        -1.360593      0.197010      0.349581
O       3.75470      5.84357      6.99875         0.039203     -0.489690      0.853003
O      15.30105      6.12681      7.07629         0.041005     -0.469036      0.422240
O       3.80709      5.71214     11.38418         0.339668      0.528823      0.441629
O      15.31239      5.99723     11.53744         1.032476      0.429585     -0.238042
O       3.87628      9.66016      2.70610        -0.891526      0.270212      0.053969
O       3.73632      9.66548     15.86498         0.850732      0.288041      0.277399
O      15.30478      9.81126      2.81835         0.233730     -0.451545      0.109651
O      15.28016      9.75068     15.61661         1.500645      0.108728      0.966577
O       3.78622      9.72606      7.14048        -0.449170     -0.371451      0.099254
O      15.30800      9.86703      6.91456        -1.079551     -0.127898      0.359438
O       3.86902      9.71020     11.38564        -0.107889     -0.203058      0.167759
O      15.31766      9.79962     11.59025         0.218370     -0.360229     -0.552911
O       7.69517      1.97720      2.79173        -0.513417     -0.083331      0.327459
O       7.61351      2.01735     15.95830        -0.246145      0.007806     -0.342407
O       7.74182     13.60561      2.76805        -0.572495     -0.146358      0.531210
O       7.67128     13.52134     15.76162        -1.608516     -0.159653      0.694450
O       7.62112      2.07123      6.98693         0.318716     -0.109922      0.428432
O       7.60108     13.63966      7.16260         1.020111     -0.133861     -0.126153
O       7.65405      1.99014     11.57627        -0.521806     -0.181996      0.140309
O       7.64084     13.59124     11.44526        -0.134469     -0.387262      0.179266
O       7.65898      5.75372      2.78664        -0.409992      0.010152      0.545967
O       7.54897      5.81768     15.81895        -0.573452      0.044220      0.508628
O       7.62731      5.87028      6.95782         0.332876     -0.260102      0.492790
O       7.61953      5.94907     11.38033         0.256469     -0.379003      0.172117
O       7.68556      9.65837      2.89450        -1.449710      0.132613      0.298557
O       7.61819      9.55054     15.93457         0.184533      0.480872      0.086279
O       7.61967      9.63825      6.98521         0.876521      0.006777      0.547124
O       7.62328      9.68773     11.50180         0.507683      0.104771      0.245401
O      11.58905      2.13499      2.68999         0.107782      0.044939      0.341797
O      11.43721      2.14206     15.90075         0.732191     -0.450841      0.020744
O      11.52994     13.60114      2.57267         1.380198     -0.035992      1.005733
O      11.40698     13.58550     15.91275         1.009261     -0.530639      0.146269
O      11.52119      2.11873      7.25251         0.074608     -0.081145      0.233575
O      11.51134     13.60005      7.10818        -1.363323      0.062242      0.150718
O      11.50463      2.20285     11.35056         0.222017     -0.391829      0.799953
O      11.46455     13.52684     11.35365         0.222791      0.048768      0.617711
O      11.56852      5.65655      2.60012        -1.001437      0.822172      0.457475
O      11.42596      5.81933     15.87765         0.467398      0.153453      0.014825
O      11.52774      5.84651      7.13417        -0.527594      0.178513      0.110857
O      11.50892      5.89483     11.36502        -0.666842     -0.084513      0.747377
O      11.47973      9.77599      2.68387         0.409034     -0.117902      0.303522
O      11.49147      9.69829     15.93483        -0.918899      0.035181      0.163552
O      11.38558      9.77028      7.03369         0.625709      0.067753      0.304538
O      11.45610      9.77599     11.50840        -0.206702     -0.542770     -0.060897
O       1.92202      3.85976      2.64105         0.177745     -0.090197      0.323741
O       1.78004      3.87079     15.67597         0.800111     -0.896625      0.355895
O       1.91904     15.38286      2.88319         0.099133     -0.201357      0.086013
O       1.86664     15.34687     15.74660        -0.247044     -0.089823      0.253862
O      13.56958      4.07538      2.74683         0.142482     -1.116718     -0.065141
O      13.34843      4.05049     15.76888         0.645078     -1.087714      0.993452
O      13.51263      0.24090      2.82276        -0.317192     -0.598452     -0.367126
O      13.37329     15.43629     15.77419         0.000568      1.179957      0.274299
O       1.78514      3.86828      7.00623         0.038548      0.359305      0.698288
O       1.88260     15.30190      7.13317         0.124344      0.861303     -0.032639
O      13.43741      4.03994      7.09754         0.231957      0.118581      0.442599
O      13.31717     15.51572      7.12864         0.504111      0.601095      0.378987
O       1.88403      3.83656     11.36264        -0.253702      0.229546      0.518303
O       1.78674      0.03869     11.56742         0.399676     -1.407244      0.087218
O      13.56122      4.03404     11.36442        -0.499242      0.151327      0.209528
O      13.44137     15.48076     11.47570        -0.185522      0.301815      0.477320
O       1.94904      7.69698      2.77418        -0.016363      0.568293     -0.030071
O       1.93115      7.73423     15.57311        -0.153366      0.504963      0.918089
O      13.39381      7.84674      2.77222        -0.311511     -0.151970     -0.266371
O      13.32707      7.84756     15.82975         0.210453     -0.933024      0.390051
O       1.93017      7.76376      6.99757        -0.236090     -0.415873      0.573972
O      13.36613      7.86312      7.13855        -0.085628      0.723015     -0.268754
O       1.96555      7.75154     11.45376        -0.239636     -1.222627     -0.064701
O      13.41270      7.83271     11.61183        -0.271900      0.587425      0.073301
O       1.80577     11.52804      2.69077         0.442828      0.244723      0.053991
O       1.81405     11.54206     15.93837         0.395405      0.040084     -0.088735
O      13.49003     11.67387      2.66576        -0.275649      0.780239      0.432368
O      13.43512     11.61537     15.87984        -0.335353      1.360837      0.310055
O       1.87433     11.51746      7.05334        -0.087225      0.611003      0.279585
O      13.29298     11.72630      7.10680         0.485903     -0.833474     -0.171292
O       1.91630     11.45600     11.48216        -0.176769      1.076992      0.354900
O      13.43843     11.63923     11.51724        -0.431631      0.084151      0.060224
O       5.71659      3.81767      2.73285         0.075861      0.589184      0.707481
O       5.55336      3.91073     15.77845         0.403721     -0.380337      0.473539
O       5.77516     15.34882      2.74265        -0.086185      0.476001      0.230610
O       5.75301     15.36068     15.84469        -0.256504      0.498985      0.266389
O       5.64330      3.91439      7.04084         0.182622      0.151315      0.400995
O       5.59619      0.13542      7.19040         0.386276     -0.247334      0.254827
O       5.76672      3.88869     11.40107        -0.068799      0.454944      0.580493
O       5.74547      0.11758     11.55915        -0.144381     -0.690422      0.164211
O       5.74146      7.75228      2.83903         0.290661     -0.793380     -0.064341
O       5.62813      7.73999     15.84622         0.015316      0.094227      0.336296
O       5.64923      7.74852      6.96313        -0.057771     -0.555768      0.733171
O       5.62023      7.80868     11.29288         0.296436     -0.824384      0.664102
O       5.86671     11.65377      2.85282        -0.014467     -1.036642      0.040990
O       5.70787     11.54866     15.83809         0.221548      0.022152      0.241920
O       5.76842     11.63043      7.22984        -0.062520      0.321179      0.053653
O       5.73954     11.61793     11.28252         0.038779      0.378904      0.364249
O       9.55623      3.85576      2.85977        -0.019602      0.757835      0.478283
O       9.43426      3.95124     15.84687         0.425785     -0.898485      0.456537
O       9.68594     15.48657      2.68565         0.112130      0.080359      0.466234
O       9.56847     15.41711     15.87551        -0.121352      1.062486      0.192872
O       9.52788      3.96893      7.16213         0.447894      0.231940      0.297699
O       9.56858      0.16846      7.22739         0.313577     -0.181001     -0.171043
O       9.53500      3.94227     11.41995        -0.295122      1.130873      0.589204
O       9.63500     15.47353     11.56071        -0.231980     -0.471552     -0.153361
O       9.49638      7.74280      2.66150         0.587723     -0.817214      0.970438
O       9.52890      7.66051     15.83864         0.207366      1.436833      0.946068
O       9.55147      7.76505      6.96479         0.247962      0.282141      0.471546
O       9.54402      7.81997     11.51560         0.264895     -0.211007     -0.019605
O       9.60352     11.64662      2.81734        -0.148882      0.204860      0.333080
O       9.50192     11.59393     15.83635         0.145379     -0.697565      0.458414
O       9.43247     11.68925      6.96989         0.444872      0.465333      0.217279
O       9.57360     11.63995     11.50249        -0.560169     -0.072921      0.123811
