  # total energy = -7880.81760051 
CRSYTAL
PRIMVEC
    15.3600000000000000    0.2300000000000000    0.0000000000000000
     0.0000000000000000   15.3600000000000000    0.0000000000000000
     0.0000000000000000    0.0000000000000000    17.440000000000000
PRESSURE
-0.734724 -0.359836 -4.26569 0.254079 -0.055795 -1.50902
PRIMCOORD
320 1
Pb       3.77163      3.89203      4.49800        -0.093039     -0.362813     -1.091980
Pb       3.86662      3.77401     17.43445        -0.078080      0.180495     -0.694618
Pb       3.88479     15.39173      4.26257        -0.536505      0.336108     -0.156686
Pb       3.86011     15.41392     17.36954         0.109442     -0.089857     -0.231738
Pb      15.19358      4.10709      4.41174         0.353127     -0.552172     -0.679139
Pb      15.30292      4.08582     17.36268         0.206823     -0.112351     -0.036297
Pb       0.05765     15.25035      4.29059        -0.073566      0.370389     -0.291669
Pb       0.08035      0.01150     17.39471        -0.320745     -0.181103     -0.653853
Pb       3.80194      3.94647      8.77669         0.165810     -0.373863     -0.440674
Pb       3.82891     15.35311      8.66733        -0.179060      0.618984     -0.061199
Pb      15.32084      3.87690      8.74059        -0.467991      0.194566     -0.523675
Pb      15.28979      0.27506      8.72116        -0.170670      0.067937     -0.154825
Pb       3.70529      3.88031     13.00482         0.034056     -0.252060      0.231628
Pb       3.90797     15.27152     12.98159        -0.658505      0.223665     -0.257436
Pb      15.32625      4.07419     13.04252         0.127189     -0.509851     -0.185636
Pb      15.33719     15.49680     13.06926         0.100332     -0.184251     -0.355852
Pb       3.76664      7.72339      4.34530         0.041241      0.246340     -0.285277
Pb       3.85485      7.62108      0.02228        -0.133593     -0.102228     -0.864864
Pb       0.13368      7.80052      4.34082        -0.479659     -0.116601      0.112548
Pb       0.04371      7.62260      0.00051        -0.458924     -0.154571      0.172157
Pb       3.88439      7.80070      8.74385        -0.258553      0.065143     -0.341648
Pb       0.09709      7.61039      8.72950        -0.238792      0.447778     -0.648616
Pb       3.85272      7.71531     13.15238        -0.687060      0.017823      0.126631
Pb      15.32383      7.90318     13.05301        -0.201420      0.181450     -0.065334
Pb       3.76827     11.68273      4.41672        -0.466472     -0.667102     -0.708322
Pb       3.78999     11.54253     17.43763         0.099117      0.213256     -0.412726
Pb      15.28115     11.78241      4.35094         0.396195     -0.377089     -0.106795
Pb      15.20421     11.68591     17.34487         0.561174      0.098240      0.339871
Pb       3.92776     11.65790      8.74031        -0.523102     -0.756746     -0.188788
Pb       0.05541     11.53411      8.81851        -0.268385     -0.463512     -1.029370
Pb       3.90816     11.57842     13.14393        -0.670413     -0.062974     -0.657060
Pb      15.31989     11.73546     13.12656        -0.285491      0.440479     -0.610451
Pb       7.73124      3.97744      4.36878        -0.107074     -0.236977     -0.665495
Pb       7.74035      3.85367      0.01079        -0.319484      0.063612     -0.691017
Pb       7.78053     15.45750      4.27667        -0.219349     -0.042373     -0.057865
Pb       7.60931     15.35832     17.39281         0.000326      0.147764     -0.406836
Pb       7.71982      3.95365      8.75157        -0.146369     -0.520698     -0.340334
Pb       7.64940      0.15657      8.65290         0.087122      0.000672     -0.411300
Pb       7.64494      3.99897     13.08246        -0.010180     -0.148412     -0.507449
Pb       7.68443      0.26466     12.97110        -0.232715     -0.640906     -0.177571
Pb       7.63614      7.80108      4.27081        -0.203330      0.019041     -0.195511
Pb       7.60919      7.69954     17.40816         0.086891      0.376525     -0.749062
Pb       7.57175      7.65135      8.66198         0.192395      0.852823     -0.132595
Pb       7.67984      7.69179     13.04571         0.246678      0.726401      0.217220
Pb       7.64052     11.51568      4.21606        -0.149045      0.155254      0.015515
Pb       7.72739     11.67221     17.43010         0.008332     -0.193884     -0.870568
Pb       7.71746     11.61076      8.56375         0.214974     -0.298007      0.235581
Pb       7.65304     11.56047     12.92258        -0.091132      0.238614      0.345040
Pb      11.53987      3.94242      4.23433        -0.055050      0.097954     -0.294470
Pb      11.54489      4.04488     17.35837        -0.310011     -0.053335     -0.289046
Pb      11.43170     15.39682      4.35475         0.178639      0.295298     -0.919364
Pb      11.59702      0.21464     17.40676        -0.262938      0.086461     -0.615242
Pb      11.53675      4.15246      8.65168         0.149055     -1.098229      0.171421
Pb      11.42020     15.49051      8.72352         0.370491      0.353584     -0.567343
Pb      11.51993      4.05219     13.03773        -0.185095      0.427150     -0.377644
Pb      11.40960     15.52724     13.09874         0.169304     -0.670845     -0.325801
Pb      11.59856      7.69725      4.35719        -0.091315      0.610184     -0.118246
Pb      11.51352      7.84047     17.43831        -0.450051     -0.127342     -0.281840
Pb      11.44289      7.84655      8.72199         0.186410      0.509795     -0.506713
Pb      11.50026      7.86380     13.04990        -0.134349     -0.207915     -0.498425
Pb      11.38162     11.79048      4.43160         0.274930     -0.610676     -0.670547
Pb      11.50821     11.60047      0.10907        -0.541675     -0.109197     -0.776418
Pb      11.58187     11.69517      8.73837         0.093539     -0.513497     -0.874335
Pb      11.43682     11.64711     13.11856         0.101532      0.246978     -0.352981
Ti       1.81532      1.88478      2.16218         0.308334      0.630104     -0.070049
Ti       1.91638      1.90344     15.39377         0.529692      0.314261     -0.337978
Ti       1.82842     13.40247      2.16989         0.147931     -0.366355      0.196964
Ti       1.89224     13.40767     15.38594         0.302458      0.418395     -0.473990
Ti      13.34371      2.02478      2.15697         0.715392      0.491993      1.235177
Ti      13.49973      2.10606     15.30223        -0.301964     -0.723378      0.900837
Ti      13.34138     13.56387      2.15705         0.641353      0.835172      1.090831
Ti      13.34951     13.53053     15.36449         1.106824      1.670304     -1.227476
Ti       1.91862      1.97503      6.72478        -0.627406     -0.790303     -0.518008
Ti       1.90903     13.46566      6.81778        -0.841713      0.129323     -1.183826
Ti      13.38614      2.06048      6.57291         0.117312      1.171410      0.209642
Ti      13.43331     13.68419      6.65887        -0.153473     -1.222870      0.463977
Ti       1.85695      1.90982     11.01483         0.115199     -0.487928     -0.965505
Ti       1.92131     13.45305     10.85871        -0.162822     -0.148583      0.655731
Ti      13.33498      2.09065     11.08651         1.089890      0.064108     -1.141703
Ti      13.37029     13.66130     10.98507         0.086566     -0.104803     -0.086955
Ti       1.87339      5.63104      2.27171         0.114984      0.334900      0.607012
Ti       1.82932      5.72352     15.45331         0.973716      0.112634     -0.522529
Ti      13.45985      5.97110      2.25432        -0.219932     -0.379161      0.721399
Ti      13.35173      5.92000     15.32494         0.095515      0.837259      0.613581
Ti       1.94068      5.77795      6.62645        -0.740120      0.261680     -0.167893
Ti      13.36698      5.96519      6.68109         1.012700     -0.087989      0.364217
Ti       1.82298      5.80483     10.98548         0.592825     -0.238002      0.606432
Ti      13.42719      5.94332     10.98506        -1.605729      0.435299     -0.283690
Ti       1.86518      9.53669      2.19599         0.241333      0.951439      0.748623
Ti       1.82293      9.55676     15.44602         1.351518     -0.423131     -0.430764
Ti      13.39447      9.78438      2.35414        -0.241420     -0.099196     -0.655418
Ti      13.40663      9.68997     15.42221        -0.897068      0.055743     -1.091425
Ti       1.93621      9.63714      6.72548        -0.556528      0.828449     -1.000125
Ti      13.46234      9.76524      6.75972         0.041118      0.411218      0.233094
Ti       1.85204      9.64754     11.08505        -0.204527     -0.042223     -1.801785
Ti      13.33214      9.86492     11.03553         0.145257     -0.897034     -0.829708
Ti       5.75109      1.99780      2.29759        -0.839920      0.447849     -0.502296
Ti       5.78918      1.94025     15.28441        -0.502642      0.949542      0.625143
Ti       5.67772     13.54823      2.31849         0.479994     -0.768534     -1.303327
Ti       5.73180     13.47256     15.25492         0.353866      0.375753      0.030329
Ti       5.75960      1.95798      6.67163        -0.347477      0.438195     -0.005591
Ti       5.74349     13.46287      6.59905         0.358607      0.709843     -0.490121
Ti       5.68239      1.99419     10.97838         0.164253     -0.127152     -0.208937
Ti       5.76036     13.50645     10.89454        -0.436061     -0.257890      0.743000
Ti       5.69475      5.78894      2.30618         0.367200      0.322760      1.514055
Ti       5.77563      5.77863     15.31852        -0.779990     -0.296284     -0.098582
Ti       5.73381      5.80109      6.62175        -0.658813     -0.165131     -0.378110
Ti       5.64714      5.82950     11.14206         0.018990     -0.065894      0.002008
Ti       5.62185      9.69720      2.18476        -0.008401     -0.419831      1.198988
Ti       5.69151      9.70877     15.33597         0.684488     -0.409123     -0.077496
Ti       5.75413      9.69788      6.60026        -0.385429      0.030462     -0.938760
Ti       5.62132      9.64785     11.10297         0.713090      0.123050      0.165606
Ti       9.51506      2.02452      2.20344         0.885855      0.237313      0.083801
Ti       9.52507      2.01455     15.33465         0.954240      0.053311      0.510849
Ti       9.50739     13.54308      2.19092         0.751513      0.073432      0.762643
Ti       9.56341     13.59654     15.29124         0.143360     -1.017209     -0.387704
Ti       9.60472      2.03383      6.61852         0.299983      0.156738     -0.538881
Ti       9.59434     13.54776      6.63017        -0.014096      0.286188     -0.206761
Ti       9.55846      2.01424     11.04319        -0.292244      0.879388     -0.664691
Ti       9.54729     13.48085     10.84335         0.342764      0.745998      1.093410
Ti       9.57350      5.94342      2.25685         0.471821     -0.272864      0.638130
Ti       9.56457      5.91601     15.30801         0.479278      0.184171     -0.423302
Ti       9.54511      5.86908      6.55813         0.836736      0.654382     -1.004475
Ti       9.51209      5.88425     10.94960         0.928190      0.375117      1.687299
Ti       9.56930      9.68572      2.31297         0.493219      0.397231     -0.067961
Ti       9.56872      9.73972     15.28599        -0.460700      0.001033     -0.200540
Ti       9.58509      9.72073      6.52229         0.861148      0.269746      0.817721
Ti       9.53772      9.77157     11.00503        -0.118304     -1.105539     -0.929999
O       1.84284      1.86115      0.33195         0.184629      0.206045      1.143410
O       1.89846      2.03607     13.60699         0.049457     -0.294935      0.380779
O       1.92694     13.46673      0.36419        -0.011419     -0.291641      1.094523
O       1.97402     13.49051     13.57643        -0.166892     -0.397038      0.811531
O      13.33120      2.00043      0.37552         0.221917      0.223843      0.345119
O      13.59492      2.24553     13.54730        -0.408799     -0.331552      0.112978
O      13.40737     13.55690      0.38149         0.114406     -0.025281     -0.088362
O      13.48196     13.62373     13.51759        -0.208375     -0.301965      1.378797
O       1.76920      2.02631      4.94092         0.430041     -0.489570      0.501590
O       1.83176     13.61447      4.92213         0.356302     -0.411568      1.386834
O      13.46645      2.26422      4.77300        -0.315529     -0.469025      0.875255
O      13.38091     13.60019      4.83306        -0.002417      0.315778      1.305724
O       1.82437      1.84994      9.13169         0.110437      0.708346      1.925322
O       2.02971     13.38676      9.04085        -0.478860      0.438415      1.407954
O      13.47556      2.07168      9.27994        -0.337384      0.100970      1.090650
O      13.33003     13.76552      9.15892        -0.031471     -0.509783      1.799009
O       1.77525      5.65196      0.49268         0.111521      0.153536      0.257115
O       1.87804      5.82132     13.66386        -0.098217     -0.293425      0.321219
O      13.36195      5.98024      0.49984         0.067403      0.026361     -0.006629
O      13.28032      5.91479     13.56779         0.376047     -0.011532     -0.362774
O       2.12313      5.78590      4.82060        -0.610630     -0.177662      1.457820
O      13.34198      5.99372      4.89110         0.049604     -0.433851      0.576027
O       1.91882      5.75718      9.23681        -0.175310      0.192423     -0.322688
O      13.21599      5.91371      9.20057         0.792785     -0.049843      0.772526
O       1.82516      9.55026      0.41002         0.255382      0.147689      0.402342
O       1.92308      9.48596     13.65561        -0.743704      0.228066      0.423839
O      13.40166      9.84316      0.50649        -0.169196      0.030669      1.008455
O      13.44258      9.62066     13.61147        -0.126630      0.537193      1.187971
O       1.86154      9.71357      4.86934         0.411989     -0.112542      1.276629
O      13.48718      9.73232      5.00759        -0.019848      0.237689     -0.777582
O       1.76749      9.57040      9.10567         0.444323     -0.048291      2.946029
O      13.32126      9.84531      9.19892         0.305295     -0.173633      1.541671
O       5.74094      2.02054      0.47255         0.413481     -0.054354      1.413741
O       5.78353      1.97677     13.50004         0.097801     -0.149409      0.782094
O       5.71731     13.51359      0.47769         0.134135      0.109756      1.515140
O       5.49861     13.35378     13.43533         0.951927      0.633132      0.929364
O       5.63135      2.08973      4.89223         0.332719     -0.448159      0.706233
O       5.66797     13.55412      4.77743        -0.133310     -0.351853      0.920754
O       5.68391      1.92896      9.18601         0.282315      0.237888      0.288752
O       5.62766     13.39186      9.13945         0.635476      0.512811     -0.099912
O       5.91169      5.89230      0.57888        -0.504146     -0.357452     -0.256321
O       5.76330      5.81672     13.48733        -0.245512     -0.223729      1.071152
O       5.51967      5.79640      4.82544         0.701858     -0.091585      1.568486
O       5.72004      5.93450      9.33507         0.263218     -0.064964      0.621280
O       5.70266      9.66112      0.39807         0.174802     -0.124617      0.370360
O       5.68634      9.76995     13.50331        -0.085088     -0.113660      1.601158
O       5.77182      9.74095      4.78729        -0.186311      0.120092      1.542821
O       5.61445      9.52358      9.33471         0.155942      0.006111     -0.042307
O       9.62753      1.96102      0.39664        -0.441266      0.410636      0.882721
O       9.57312      1.96011     13.50877        -0.471799      0.383004      1.400670
O       9.55726     13.51425      0.42462        -0.269123     -0.044265      0.030186
O       9.74937     13.50552     13.48344        -0.639765      0.431709      1.383374
O       9.59918      1.94680      4.77430        -0.034273      0.283298      1.712265
O       9.68616     13.64891      4.74731        -0.070081     -0.063270      1.359870
O       9.60054      2.08439      9.24173        -0.385037     -0.288957      0.920047
O       9.56906     13.55343      9.04790        -0.066105      0.209873      1.367210
O       9.87280      5.96701      0.48619        -1.195933     -0.161042      0.849794
O       9.58322      5.93263     13.48918        -0.020263     -0.390670      1.273155
O       9.59431      5.91527      4.71862        -0.049882     -0.198573      1.779015
O       9.41030      5.88681      9.17062         0.123078      0.213228      0.202569
O       9.51191      9.73677      0.51041         0.211688      0.194602      0.426708
O       9.49348      9.75052     13.47874         0.437766      0.283344      0.753000
O       9.52711      9.92003      4.72586         0.248576     -0.502870      1.348735
O       9.53520      9.80742      9.18548         0.060776     -0.352108      1.302414
O       3.79309      2.03792      2.55324         0.566005     -0.479730      0.287294
O       3.88453      2.00190     15.82203        -0.147113     -0.230314     -0.381228
O       3.74562     13.54667      2.64162         0.241025     -0.273892      0.139371
O       3.95503     13.51071     15.75913        -1.115212     -0.050531      0.117111
O      15.30271      2.13812      2.58644        -0.175053     -0.057893     -0.282900
O       0.07731      1.94453     15.78736        -1.546182     -0.213522     -0.113646
O      15.30796     13.65357      2.80101         0.380952      0.322826     -1.071379
O       0.07263     13.36175     15.79222        -0.562606     -0.074320     -0.279424
O       3.81378      1.95442      7.12329         0.369837      0.142909     -0.391031
O       3.84296     13.38152      7.07673         0.310362      0.751791     -0.633174
O      15.23813      2.14191      7.10202         0.794301     -0.251659     -0.038420
O      15.27341     13.63975      7.23189         0.260202      0.392774     -0.848183
O       3.83635      1.93047     11.46672        -0.633378     -0.239618     -0.377311
O       3.80574     13.55942     11.27005         0.369420     -0.007564      0.023011
O       0.01628      1.98162     11.42338        -0.130006     -0.285924     -0.045941
O      15.34037     13.56402     11.40274        -0.115332      0.038448     -0.405000
O       3.79153      5.75823      2.68084         0.448336     -0.166383     -0.543543
O       3.84772      5.61269     15.85168        -0.259999      0.814770     -0.146776
O      15.35872      6.03812      2.78046        -0.165585     -0.309735     -0.374415
O      15.26438      6.11859     15.78192         0.004315     -0.702119     -0.121882
O       3.83509      5.72479      7.15305         0.299679      0.085247     -0.317522
O      15.35430      5.99100      6.99559         0.312477     -0.089614     -0.046030
O       3.69504      5.87272     11.44175         0.939144     -0.228381     -0.051942
O      15.28072      5.94666     11.33824         0.410969     -0.269407      0.092320
O       3.75022      9.73087      2.60400         0.438992     -0.023656     -0.331506
O       3.83524      9.45136     15.69952         0.214338      0.600041      0.249646
O      15.35193      9.83967      2.75454        -0.463734     -0.239174     -0.309261
O      15.30092      9.68159     15.81550         0.094515      0.480776     -0.199039
O       3.85928      9.82576      7.03845         0.287760     -0.668940     -0.049397
O       0.07079      9.63178      7.02702        -0.963806     -0.387595      0.491222
O       3.71330      9.63176     11.56890        -0.076266     -0.541309     -0.596484
O      15.26072      9.91614     11.55858         0.849581      0.009282     -0.472504
O       7.66262      1.98415      2.79565        -0.116139     -0.277545     -0.524335
O       7.65531      2.01818     15.86556         0.474900      0.280998     -0.602654
O       7.65781     13.52403      2.67397        -0.274725      0.235612     -0.328969
O       7.67670     13.54972     15.69345        -0.499556     -0.314321      0.032109
O       7.68357      2.02124      7.06269         0.112399     -0.069346     -0.027113
O       7.72485     13.47410      7.03494        -1.099586      0.471199     -0.354427
O       7.62685      2.04230     11.41773         0.431211      0.203746     -0.075378
O       7.63570     13.44691     11.24411         0.441603      0.210918     -0.085445
O       7.63972      6.04514      2.71038        -0.132423     -0.226384     -0.242824
O       7.70499      5.91009     15.69160        -0.519414     -0.031568      0.279235
O       7.67547      5.95918      6.93804        -0.722244     -0.062618      0.079713
O       7.62964      5.88585     11.61025        -0.278464      0.099510     -1.392716
O       7.71736      9.60477      2.76923        -1.438671      0.660145     -0.738271
O       7.68568      9.60124     15.61113        -1.068377      0.120378      0.576911
O       7.68109      9.78173      7.02081        -0.011505     -0.478339     -0.292495
O       7.59078      9.81157     11.45618         0.512825     -1.082147     -0.594405
O      11.42600      2.18280      2.66139         0.282911     -0.293452     -0.487477
O      11.52523      1.99395     15.73214        -0.410759      0.262986     -0.559032
O      11.49832     13.59914      2.57953        -0.265836     -0.058782      0.076328
O      11.54356     13.63654     15.76007        -0.511361      0.004430     -0.237404
O      11.50909      2.05004      7.09407        -0.646191      0.044806     -0.511912
O      11.43538     13.63061      7.08678         1.034056      0.223138     -0.472797
O      11.46977      2.03100     11.52896        -0.205132      0.272546     -0.373914
O      11.45706     13.58622     11.42415        -0.024349      0.574972     -0.746534
O      11.53733      5.97239      2.75185        -0.348428     -0.372622     -0.389276
O      11.47783      5.90953     15.79385         0.408541     -0.312722     -0.280328
O      11.49620      5.85218      7.14209        -0.832138      0.667644     -0.772619
O      11.47844      5.92170     11.45590        -0.157185     -0.431278     -0.447043
O      11.48213      9.83061      2.76015         0.836468     -0.131577     -0.401369
O      11.44836     10.00123     15.73017         1.062739     -0.977230      0.112039
O      11.53569      9.81146      7.05623        -1.122140     -0.138874     -0.168624
O      11.43337      9.83445     11.48093         0.458221     -0.440944     -0.256210
O       1.89010      3.81182      2.68067        -0.313141      0.067695     -0.089307
O       1.82987      3.84908     15.80141        -0.004708     -0.072404      0.053197
O       1.87906      0.04764      2.51878        -0.159808     -0.784022      0.440046
O       1.92028     15.31539     15.70964         0.208275      0.654466      0.176332
O      13.40819      4.02615      2.54322         0.062660      0.308655      0.315487
O      13.46166      4.09073     15.71284        -0.061076     -1.146881      0.212382
O      13.37593     15.52471      2.56455        -0.165544      0.181975     -0.101475
O      13.57402      0.21184     15.65450        -0.207864     -0.161053      0.049956
O       1.87874      3.84020      7.02557         0.164768      0.728024      0.330700
O       1.88007     15.38111      7.26233         0.105873     -0.148463     -0.960744
O      13.35411      3.96174      7.08063         0.292930      0.653987     -0.112528
O      13.37101     15.54753      7.10330         0.065381     -0.042549     -0.691464
O       1.95580      3.80211     11.36277        -0.212776      0.895495     -0.040673
O       1.86631     15.31613     11.40031        -0.073841      0.529031     -0.251986
O      13.38910      3.98046     11.41329        -0.117745      0.774618      0.086574
O      13.46352     15.55720     11.46202        -0.124189     -0.386806     -0.002863
O       1.94604      7.70068      2.76820        -0.085332     -0.095628     -0.700124
O       1.83655      7.61202     15.99823         0.862440      0.355663     -0.658541
O      13.44881      7.88314      2.81877        -0.175137      0.375296     -0.642019
O      13.28060      7.85765     15.89734         0.202938      0.344050     -0.640433
O       1.93385      7.74729      7.06764         0.377035     -1.244294     -0.217051
O      13.37112      7.82758      7.16374         0.105740     -0.112404     -0.041491
O       1.73163      7.69562     11.48006         0.294866      0.237141     -0.704323
O      13.42028      7.89108     11.40369        -0.117167     -0.305482     -0.216899
O       1.85244     11.50992      2.62936         0.098929      1.078000     -0.331141
O       2.04732     11.45700     15.75563        -0.418590      0.014690     -0.076440
O      13.46822     11.74152      2.59983        -0.130962     -0.631890      0.190892
O      13.55434     11.70992     15.67912        -0.320073     -0.726455      0.079982
O       1.85796     11.60294      7.15556         0.088788     -0.275054     -0.388137
O      13.43501     11.66854      7.15144        -0.118740      1.330642     -0.232702
O       1.99218     11.56824     11.25015        -0.476948     -0.545461      0.276867
O      13.26866     11.70302     11.45341         0.664478      0.633254     -0.215806
O       5.89981      3.87678      2.78400        -0.459723      0.748464     -0.668330
O       5.80227      3.90332     15.73109         0.431711     -0.288739      0.115382
O       5.76270     15.40728      2.71220        -0.186585      0.653471     -0.074032
O       5.84911     15.44368     15.75879        -0.468551     -0.291988     -0.493750
O       5.88464      3.88304      7.20427        -0.786690      1.108357     -0.693082
O       5.79630     15.39686      6.95956        -0.157659     -0.121681      0.267625
O       5.66135      3.87196     11.40469         0.184238      1.308342     -0.137082
O       5.84127      0.10772     11.29002        -0.307635     -1.341528      0.254228
O       5.55385      7.83186      2.82838         0.820772     -0.514625     -0.958194
O       5.64714      7.59854     15.87059         0.587393      1.141702     -0.405857
O       5.68063      7.78571      7.10029         0.132291     -0.573656     -0.400866
O       5.62621      7.73786     11.63921         0.570222     -0.031217     -0.920081
O       5.69373     11.57993      2.59888         0.287098      0.209420      0.094901
O       5.78909     11.63147     15.74136        -0.282825     -1.311273     -0.162242
O       5.74836     11.60685      6.99892         0.367051     -0.092134     -0.009458
O       5.67445     11.53133     11.34804        -0.468212      1.083798     -0.005404
O       9.35955      3.99741      2.62695         0.650327      0.121861     -0.366407
O       9.55389      4.02467     15.81382         0.127327     -1.302883     -0.356149
O       9.61340      0.15894      2.61838        -0.178989     -0.644043      0.011134
O       9.40735     15.45817     15.75477         0.955755      0.670498     -0.497032
O       9.56993      4.02978      6.95720        -0.274708     -0.682234      0.033819
O       9.55967      0.19101      7.09727        -0.058421     -0.586229     -0.327339
O       9.44027      4.03913     11.34242         0.597994     -0.827081      0.131382
O       9.50777      0.15872     11.52357         0.303626     -0.852759     -1.076149
O       9.60674      7.83692      2.71356         0.214652     -0.425702     -0.223469
O       9.66355      7.78229     15.69243         0.115886      0.845735      0.150887
O       9.71377      7.84488      6.98402        -0.665835     -0.133080     -0.370513
O       9.69819      7.83191     11.47900        -1.216884     -0.051645     -0.904349
O       9.60024     11.68975      2.65525        -0.293558     -0.099958     -0.207582
O       9.58048     11.67330     15.67776        -0.584942      0.210161      0.314320
O       9.65649     11.70384      7.02805        -0.264483     -0.767928     -0.532889
O       9.60176     11.65364     11.29741        -0.213164      0.611154      0.134725
