  # total energy = -7883.93672164 
CRSYTAL
PRIMVEC
    15.3600000000000000    0.0000000000000000    0.0000000000000000
     0.0000000000000000   15.3600000000000000    0.0000000000000000
     0.2400000000000000    0.0000000000000000    17.440000000000000
PRESSURE
0.410478 0.535657 -3.93582 0.199867 -0.728697 0.003814
PRIMCOORD
320 1
Pb       3.86996      3.87644      4.34814        -0.242889      0.091619     -0.197105
Pb       4.04080      3.83563     17.37515         0.184529     -0.060754      0.243634
Pb       3.94619     15.35373      4.41955         0.077831      0.063692     -0.312936
Pb       3.88001      0.02875     17.43109         0.492230     -0.363083      0.188995
Pb      15.35080      3.84210      4.28668         0.503360      0.426225     -0.044309
Pb       0.08586      3.81919      0.02019        -0.456236     -0.313514     -0.203055
Pb      15.35331      0.16522      4.39259         0.329786     -0.450531     -0.196302
Pb      15.23317     15.18939      0.08176         0.240879      0.338370     -0.460442
Pb       3.97502      3.85945      8.70242        -0.264300     -0.104408     -0.173689
Pb       3.91059     15.27008      8.68325        -0.049098      0.213762      0.590607
Pb       0.13190      3.81079      8.60290        -0.290491      0.005535      0.543495
Pb      15.40336     15.28776      8.61848        -0.038997      0.302693      0.518444
Pb       3.99054      3.89206     13.05451        -0.145108     -0.690587      0.084648
Pb       4.04040     15.35897     13.15512         0.037255      0.318524     -0.750867
Pb      15.51299      3.94023     13.00776        -0.073805     -0.830223      0.006372
Pb       0.19112      0.08065     13.12167        -0.171424      0.204343     -0.627852
Pb       3.83691      7.65528      4.37179         0.114339     -0.118947     -0.222293
Pb       3.94205      7.65411     17.32568         0.568096      0.258182      0.530756
Pb      15.41445      7.62946      4.33212         0.006643     -0.031594     -0.163378
Pb      15.56648      7.72089     17.36670         0.201834     -0.196476      0.153402
Pb       3.93790      7.53698      8.67154         0.077572      0.586274     -0.360440
Pb      15.32488      7.59447      8.62184         0.257293      0.013601      0.133306
Pb       3.97173      7.58282     13.05886        -0.120557      0.475150      0.225095
Pb      15.43370      7.59790     13.00732         0.491735      0.096792      0.124203
Pb       3.91413     11.43145      4.41308        -0.221581     -0.160086     -0.259960
Pb       3.74885     11.64299      0.01921        -0.032512     -0.439494     -0.334529
Pb       0.08488     11.57443      4.45558         0.147130     -0.440305     -0.228920
Pb      15.54670     11.53618     17.36541         0.567050      0.083263     -0.074649
Pb       3.94178     11.50550      8.71382         0.049681     -0.386553     -0.259304
Pb      15.34035     11.45851      8.67517         0.396190      0.339455     -0.393342
Pb       4.04657     11.51453     12.93775        -0.253938     -0.022669      0.025606
Pb       0.20662     11.54834     13.01465         0.848995      0.109266      0.054554
Pb       7.72273      3.90096      4.18083         0.076240     -0.390845      0.588860
Pb       7.94268      3.80925     17.37164        -0.316841     -0.108543      0.371548
Pb       7.77319      0.04806      4.22519        -0.289645      0.269097      0.364710
Pb       7.89207     15.32011     17.37782        -0.199504     -0.033791      0.268022
Pb       7.76939      3.85920      8.70178         0.228017     -0.378035     -0.627666
Pb       7.76341      0.00036      8.71907         0.220305      0.254872     -0.395418
Pb       7.87284      3.68126     13.24329        -0.034103     -0.124880     -0.595153
Pb       7.91707     15.22778     13.13156        -0.099255      0.278298     -0.737609
Pb       7.61676      7.68119      4.35521         0.007208      0.154979     -0.313896
Pb       7.81909      7.66292     17.29786         0.008479      0.187566      0.641666
Pb       7.78894      7.62289      8.70344        -0.436094      0.201121     -0.115520
Pb       7.81167      7.57660     13.01828         0.171001      0.334086      0.167467
Pb       7.61349     11.53324      4.32105         0.186846     -0.407361      0.119284
Pb       7.95934     11.41655     17.35017        -0.402790     -0.092072      0.036403
Pb       7.83737     11.53484      8.74335        -0.396455     -0.227834     -0.269469
Pb       7.85938     11.36674     13.04122        -0.272087      0.438819     -0.508160
Pb      11.50970      3.80608      4.21554        -0.210424      0.034406      0.191137
Pb      11.78513      3.74724     17.39063         0.095366      0.323790      0.479675
Pb      11.49823     15.35073      4.24587        -0.162953     -0.115419      0.113101
Pb      11.66209     15.20344     17.40457        -0.098150      0.362810      0.456478
Pb      11.52873      3.78488      8.62493        -0.037575      0.166145      0.304796
Pb      11.63579     15.25787      8.68984        -0.255416      0.241547     -0.208111
Pb      11.73037      3.79680     13.12405         0.079551      0.284033     -0.609081
Pb      11.77331      0.07972     13.08725         0.317121     -0.611108     -0.479135
Pb      11.51055      7.74634      4.22985         0.078894     -0.254232      0.694734
Pb      11.78629      7.71750     17.38350        -0.137673     -0.219932     -0.042870
Pb      11.56863      7.64351      8.68898         0.091812     -0.473034     -0.087601
Pb      11.61363      7.65140     13.08273        -0.078320     -0.560582     -0.234931
Pb      11.45435     11.55052      4.41659        -0.064340     -0.060519      0.025745
Pb      11.80445     11.44039     17.36935        -0.341476      0.149323      0.152767
Pb      11.61268     11.40566      8.66576        -0.115680      0.489827     -0.175657
Pb      11.76648     11.49128     13.05662        -0.441071      0.832966     -0.165538
Ti       1.94464      1.85531      2.33350         0.391139      0.866190     -0.595868
Ti       2.17577      1.81793     15.45303        -1.741814      0.598998     -1.229297
Ti       1.93877     13.41065      2.47341         0.660564     -0.322212     -1.507648
Ti       2.14026     13.40735     15.33402        -0.249652     -0.453923     -0.329469
Ti      13.53448      1.88703      2.29538        -0.908396      0.587572     -1.469949
Ti      13.66511      1.88647     15.47373         1.331990      0.002240      0.169602
Ti      13.43894     13.38975      2.41873        -0.036771      0.008062     -0.378944
Ti      13.55150     13.45356     15.39632         1.341534     -0.116830     -1.932944
Ti       2.04415      1.88291      6.70356        -0.134837      0.687090     -1.740715
Ti       1.98445     13.46746      6.72879        -0.396463     -0.985253     -0.521347
Ti      13.49312      1.99743      6.59244        -0.256505     -0.445752     -0.107041
Ti      13.44905     13.49364      6.59371         0.216093     -0.400615      0.640350
Ti       2.11719      1.93034     11.01560        -0.598933      0.006951      0.028701
Ti       2.13842     13.51195     11.03500        -0.362546     -0.041556     -1.476881
Ti      13.57637      1.91177     10.96930         1.108363     -0.233930     -0.487496
Ti      13.71198     13.34469     11.02074        -0.925241      2.390847     -0.930957
Ti       1.95872      5.74515      2.33069         0.397224     -0.438611     -0.467564
Ti       2.13409      5.70653     15.44220        -0.026435      0.303458     -1.367214
Ti      13.39852      5.73414      2.29422         1.292177     -0.221736     -1.228375
Ti      13.67023      5.70028     15.43495         0.131370     -0.060108     -0.285582
Ti       1.97674      5.72862      6.71448         0.342027      0.026250     -1.520954
Ti      13.47007      5.76409      6.55273        -0.157873     -0.140288     -0.444357
Ti       2.07216      5.75417     11.05760        -0.571973     -0.595600     -1.922881
Ti      13.54181      5.75353     11.03414        -0.051159     -0.618520     -0.800194
Ti       1.95446      9.59413      2.42142         0.403626     -0.202411     -0.300326
Ti       2.16427      9.57628     15.33048         0.033739      0.757694     -1.005621
Ti      13.44171      9.61385      2.40201         0.800060      0.277832      1.958415
Ti      13.69430      9.61340     15.32329         0.579560     -0.131570      3.455021
Ti       1.98208      9.59624      6.72796         0.612642      0.242261     -0.730860
Ti      13.50921      9.58436      6.62304        -0.585443     -0.002189     -0.191552
Ti       2.05713      9.58576     10.91876         0.881958      0.503580     -0.046053
Ti      13.62206      9.57931     11.06791        -0.345991     -0.537921     -1.444769
Ti       5.71497      1.95576      2.29737         0.927854     -0.436949     -1.298689
Ti       5.98835      1.80976     15.41957        -0.551259      0.528505     -0.964681
Ti       5.77241     13.46800      2.31587        -0.033915     -0.045163      0.831477
Ti       6.00400     13.36548     15.33174        -0.874629     -0.115498     -0.057427
Ti       5.83732      1.87256      6.69970         0.677706      1.130196      0.359985
Ti       5.82029     13.44203      6.69198         0.403238     -0.321936      0.868298
Ti       5.98233      1.97168     11.04558        -0.690660     -1.542619      0.097203
Ti       5.99296     13.48251     10.99091        -0.272409     -0.087955     -0.416895
Ti       5.81114      5.80299      2.28942        -1.024041      0.366868     -0.202021
Ti       5.98324      5.70379     15.41119        -1.034408      0.150438      0.147247
Ti       5.87070      5.72490      6.62087         0.132447      0.002967     -0.973959
Ti       5.94015      5.70484     11.05618         0.013671      0.154299     -0.798725
Ti       5.80708      9.63885      2.23690         0.137376     -1.081323     -0.500421
Ti       5.99988      9.55895     15.32555        -0.978443     -0.157480     -0.065675
Ti       5.88611      9.58194      6.67841        -0.796227     -0.058043      0.645692
Ti       5.90836      9.52186     11.04369        -0.436302      0.981107     -2.063269
Ti       9.65461      1.89925      2.31037        -0.396501      0.514152     -0.672044
Ti       9.86710      1.90414     15.43475        -0.582230     -0.634608     -0.990106
Ti       9.51199     13.33594      2.28989         1.185354      1.425047     -1.506448
Ti       9.76739     13.35769     15.42938         0.284260      0.587472     -0.536538
Ti       9.66021      1.91015      6.62349        -0.588193      0.101030     -0.449182
Ti       9.63332     13.40183      6.69064         0.345503      0.152536     -1.092001
Ti       9.80106      1.91462     11.12328        -0.486883     -0.138935     -1.563673
Ti       9.88478     13.43785     11.04512        -0.333678      0.281970     -0.900918
Ti       9.63383      5.83578      2.24043        -0.930210     -1.078642     -0.880332
Ti       9.84985      5.72860     15.43220        -0.017274      0.250961     -1.019261
Ti       9.71294      5.76413      6.59294        -0.770998     -0.966824     -0.698507
Ti       9.74293      5.69990     11.09074         0.818666      0.277659     -0.894788
Ti       9.60766      9.59822      2.33846        -0.828761      0.276712     -1.336181
Ti       9.88609      9.52886     15.29882        -0.770610      0.388518     -0.441362
Ti       9.63150      9.51781      6.71510         0.153980      1.323865     -0.512727
Ti       9.75831      9.63359     11.03147        -0.371745     -0.634335     -1.138688
O       1.93856      1.93633      0.50378         0.067664     -0.354650      0.623192
O       2.23170      1.69534     13.65124        -0.372746      0.414637      0.832738
O       2.00140     13.27398      0.58540        -0.031407      0.308584      1.319253
O       2.15908     13.49819     13.53816        -0.121783     -0.306024      0.646016
O      13.60061      1.92165      0.45971        -0.429903     -0.155954      1.228862
O      13.69875      1.81424     13.70058        -0.357964      0.156860      0.014777
O      13.57822     13.38219      0.57820        -0.515948     -0.097017      1.191075
O      13.56501     13.52334     13.55014         0.114524     -0.418610      1.382332
O       2.06193      1.81826      4.80518        -0.491894      0.073132      1.898424
O       1.93377     13.43017      4.91884         0.175317      0.247326      0.616118
O      13.56449      1.90840      4.75617        -0.183936      0.214871      1.326364
O      13.47788     13.56495      4.80889        -0.078590     -0.296180      0.462897
O       2.02695      1.99348      9.23366         0.161357     -0.006994     -0.084021
O       2.05066     13.64728      9.17312         0.211697     -0.475363      1.279207
O      13.57423      1.90580      9.16508        -0.352459      0.058557      0.807649
O      13.55992     13.41889      9.18129         0.189730     -0.008808      1.384093
O       2.01835      5.83187      0.48736        -0.432856     -0.383241      0.919755
O       2.19487      5.83910     13.54088        -0.361553     -0.250886      1.419127
O      13.58248      5.70063      0.45179        -0.634517      0.319699      1.531858
O      13.67331      5.70370     13.61242        -0.029397      0.143889      0.955636
O       2.03944      5.75228      4.84884        -0.335975     -0.190272      1.987434
O      13.49483      5.68444      4.74843        -0.176567      0.351775      0.751706
O       2.07044      5.62169      9.16120        -0.139420      0.417206      1.555090
O      13.44789      5.87616      9.25874         0.264659      0.049516      0.178874
O       2.01204      9.62101      0.63879        -0.207020      0.068226      0.431486
O       2.04572      9.69328     13.53326         0.149658     -0.334760      0.666749
O      13.47170      9.75064      0.69820        -0.164738     -0.180322     -1.377159
O      13.68293      9.60979     13.66560        -0.121897      0.090076     -3.475811
O       2.02322      9.68327      4.89306        -0.043842     -0.420469      1.158814
O      13.43592      9.60636      4.87132         0.101725     -0.237769     -0.201169
O       2.17653      9.62506      9.13603        -0.573011     -0.237652      0.905689
O      13.56495      9.62672      9.25868        -0.032994     -0.419377      1.424075
O       5.71893      1.93172      0.45466         0.062712     -0.163990      1.074888
O       5.95732      1.87539     13.59092         0.058181     -0.218347      1.595068
O       5.94566     13.41259      0.60342        -0.547623      0.100025     -1.233119
O       5.96320     13.43254     13.56439         0.240733     -0.187550     -0.125858
O       5.86483      1.89359      4.97197        -0.169356     -0.312494     -1.079648
O       5.79901     13.54368      4.95134         0.262302     -0.403984     -0.319959
O       6.01388      2.07963      9.26554        -0.171059     -0.224169      0.277191
O       5.90570     13.47211      9.18197         0.006113      0.147292      0.973170
O       5.71509      5.77392      0.49591         0.257126     -0.197231      0.430726
O       5.80639      5.80345     13.64766         0.225553     -0.128665     -0.498126
O       5.88051      5.79561      4.80777        -0.252872     -0.063518      0.772903
O       5.97164      5.83089      9.23474        -0.330120     -0.633627      1.636243
O       5.90550      9.58975      0.43322        -0.091075     -0.080386      0.672760
O       5.96562      9.47968     13.51885         0.094626      0.500847      0.609117
O       5.96209      9.66918      4.87587        -0.115702     -0.189010      0.725346
O       5.96353      9.50689      9.17674        -0.304828     -0.022671      2.151150
O       9.60537      1.94189      0.52208        -0.090320      0.018677     -0.111784
O       9.71904      1.90695     13.57167         0.640477      0.122315      1.857270
O       9.55868     13.36701      0.41378        -0.154126      0.005932      1.386893
O       9.82528     13.46763     13.66958         0.004705     -0.080173     -0.433898
O       9.62061      2.08513      4.81547         0.117228     -0.731274      0.356793
O       9.73754     13.42515      4.85040        -0.366897     -0.047698      0.805696
O       9.83926      1.95636      9.27116        -0.331776     -0.186227      1.523516
O       9.89884     13.38199      9.22091        -0.279428      0.313691      1.034056
O       9.58269      5.72742      0.42036        -0.046148      0.275353      1.177385
O       9.85278      5.70851     13.59758         0.113928      0.113528      1.238172
O       9.68891      5.69278      4.78495         0.041997      0.321806      0.779756
O       9.89963      5.74990      9.29880        -0.526819      0.123323      0.175968
O       9.66356      9.59138      0.51611        -0.047204      0.305750      0.761436
O       9.86870      9.44230     13.46684        -0.126611      0.623446      1.486458
O       9.55538      9.55110      4.92790         0.162785      0.263344     -0.009171
O       9.69957      9.61634      9.14745         0.177026     -0.186963      2.077419
O       3.86221      1.81340      2.68525         0.307225     -0.096879      0.064144
O       3.97295      1.76556     15.81189         1.441665      0.213216      0.108323
O       3.94365     13.48309      2.88051        -0.953880     -0.193519     -0.542484
O       4.09854     13.39152     15.72418        -0.581020      0.102145      0.314255
O       0.04054      2.05856      2.68622         0.080594     -0.498417      0.140384
O      15.52562      2.01737     15.80897         1.148376     -0.715509     -0.104989
O       0.12616     13.37360      2.76370        -1.725600      0.041305      0.020529
O      15.57294     13.38040     15.73002         0.110234     -0.024746      0.142677
O       3.91954      2.04743      7.02665        -0.316207     -0.437810      0.250150
O       3.89562     13.44171      7.09278         0.266479      0.065369     -0.133787
O      15.38426      2.00034      7.05777         0.151789     -0.777924     -0.602554
O      15.43652     13.41735      7.14536        -0.473500      0.310271     -0.675110
O       3.97585      2.09994     11.41239         0.861394     -0.229619     -0.146101
O       3.99203     13.30894     11.36047         1.076792      0.340049     -0.018286
O       0.19458      1.83470     11.43232        -0.173345     -0.031142      0.210098
O       0.21271     13.50640     11.38905        -0.628015      0.185472      0.229841
O       3.85440      5.79560      2.84965         0.787521     -0.048561     -0.585634
O       3.99656      5.72676     15.87317         0.574708      0.445600     -0.490889
O       0.09893      5.72325      2.78250        -1.043293     -0.185705     -0.434441
O       0.22285      5.65425     15.84463         0.311770      0.649017     -0.421079
O       3.88320      5.69691      7.05849         0.256354     -0.116504     -0.056126
O      15.35724      5.81533      7.08052         0.738104     -0.354348     -0.364138
O       3.95695      5.54342     11.34362         1.545549      0.397961      0.035176
O      15.46258      5.86468     11.33925         1.226956      0.189469      0.512125
O       3.94500      9.54252      2.79223        -0.629425      0.037624     -0.105712
O       4.05623      9.45174     15.64579         0.349502      0.405056      0.020285
O       0.08913      9.59865      2.83956        -0.999192      0.006225     -0.284307
O       0.24127      9.57459     15.82810        -0.414722      0.351057     -0.139887
O       3.99254      9.62187      7.07012        -0.501364      0.057384     -0.186539
O      15.41496      9.55917      7.08041         0.328681     -0.047090     -0.069169
O       4.01177      9.80846     11.34132        -0.048826     -0.582290     -0.063855
O       0.18374      9.44327     11.37769        -0.519061      0.245605     -0.097406
O       7.66875      1.96842      2.69998         0.380825     -0.428444     -0.202140
O       7.87585      1.93444     15.76209         0.588796     -0.042380      0.024736
O       7.71361     13.50031      2.73685        -0.214808     -0.446664      0.105742
O       7.88320     13.42060     15.68648         0.030531     -0.038796      0.391429
O       7.74922      1.93696      7.17695         0.364394     -0.231963     -0.184699
O       7.77670     13.41608      7.08414        -0.463594      0.197355      0.041158
O       7.91546      1.86526     11.59244         0.219116     -0.202201     -0.509845
O       7.93539     13.52140     11.34066        -0.273264      0.347267      0.284619
O       7.66025      5.76013      2.65761         1.175714     -0.061681     -0.237446
O       7.85970      5.67592     15.69693         0.893127      0.081357      0.112877
O       7.78637      5.84937      7.00782         0.301049     -0.366059      0.129221
O       7.82866      5.82151     11.43835        -0.624421     -0.256836     -0.127530
O       7.72992      9.62416      2.74406         0.022388      0.444100     -0.094657
O       7.91615      9.54588     15.65644         1.128111      0.042262     -0.036480
O       7.71659      9.58863      7.20137         0.918145     -0.243490     -0.506366
O       7.78628      9.46897     11.45104         1.357052      0.170931      0.024538
O      11.62556      1.99671      2.60061        -0.860951     -0.554623      0.205526
O      11.73564      1.90106     15.83635        -0.414170     -0.163328     -0.174240
O      11.49013     13.46630      2.70168         0.946472     -0.149219     -0.218491
O      11.70379     13.40279     15.81295         0.382168      0.158866      0.184766
O      11.51169      1.94675      6.93958         1.671773     -0.110480      0.043806
O      11.55787     13.41788      7.02852         1.394167      0.008719     -0.134913
O      11.70655      1.97829     11.51939         0.207709      0.463789      0.065514
O      11.76216     13.36937     11.45367         0.122452     -0.516932      0.096753
O      11.51584      5.77709      2.55187        -0.096324      0.321550      0.104509
O      11.72897      5.79217     15.82143         0.590749     -0.199624     -0.093416
O      11.55838      5.74033      7.03656         0.580765      0.443092     -0.202730
O      11.74170      5.64378     11.38652        -0.979693      0.009732      0.989031
O      11.49742      9.59892      2.80714         0.258840      0.365710     -0.333309
O      11.81141      9.61095     15.82908        -0.622606     -0.042977     -0.324584
O      11.57118      9.72332      6.99727         0.269880     -1.071662      0.085824
O      11.60867      9.77970     11.39596         1.397804     -0.769998     -0.106689
O       2.06166      3.77915      2.71461        -0.166932      0.449222     -0.074015
O       2.21424      3.83073     15.74889        -0.196981     -0.365579     -0.039753
O       1.84668     15.33876      2.62890         0.263969     -0.050717      0.225488
O       2.05143     15.27413     15.86285         0.224179      0.108057      0.074534
O      13.38259      3.86040      2.65000         0.673102      0.234521     -0.013561
O      13.67202      3.80610     15.78432        -0.722940      0.597112     -0.048281
O      13.51390      0.03433      2.70944         0.229830     -0.848464     -0.170853
O      13.65907     15.28789     15.86591        -0.050186      0.342914      0.159025
O       1.91919      3.80059      7.03910         0.163315      0.393280     -0.158038
O       2.03864      0.02825      7.13101        -0.228167      0.131733     -0.454874
O      13.48234      3.89604      6.97262         0.019620     -0.796156     -0.143174
O      13.47051      0.00314      6.97962         0.227813      0.161916     -0.093715
O       1.97770      3.85825     11.50694        -0.045606      0.173436     -0.066604
O       2.25269      0.02827     11.43579        -0.133337     -0.113138     -0.045805
O      13.75971      3.81706     11.42187        -0.458297      0.062624      0.119985
O      13.54255      0.05198     11.41238         0.062828     -0.757029     -0.075143
O       1.92227      7.58352      2.78885         0.255012      1.372425     -0.043596
O       2.12933      7.70990     15.79674        -0.481976     -0.911472     -0.101172
O      13.45612      7.68385      2.73901         0.021988     -0.062568     -0.297943
O      13.68532      7.69924     15.81204         0.045702     -0.309278     -0.094325
O       2.03502      7.69522      7.03891        -0.120521     -0.638092      0.098843
O      13.52646      7.65016      6.99837        -0.539091      0.283513      0.146699
O       2.28584      7.65299     11.34811        -0.409740      0.340133     -0.195473
O      13.50239      7.66035     11.55463        -0.012294      1.238123     -0.351821
O       1.97277     11.48162      2.91133         0.532145      0.342622     -0.402291
O       2.18612     11.48649     15.77405         0.003805      0.174912      0.058019
O      13.43965     11.53876      2.93040         0.066470      0.227273     -0.666907
O      13.65908     11.55722     15.74775        -0.089905     -0.682340      0.141232
O       1.95903     11.51133      7.12273         0.217446      0.376620     -0.098712
O      13.55805     11.45164      7.06790        -0.003608      1.222715     -0.307144
O       1.98976     11.57224     11.29790        -0.228999     -0.952734      0.320091
O      13.74788     11.51963     11.43423        -0.192865     -1.103191      0.129088
O       5.77538      3.82997      2.67755        -0.393915      0.101344     -0.100275
O       5.87056      3.77602     15.69323         0.157982      0.065489      0.277130
O       5.87270     15.33045      2.77874        -0.347889      0.873350     -0.267637
O       5.93827     15.27630     15.73855         0.442826      0.405247      0.219462
O       5.91114      3.86535      6.98629        -0.085614     -0.008228      0.572731
O       5.81262      0.02761      7.15598         0.148150     -0.671216     -0.143941
O       6.10146      3.70547     11.56823        -0.297665      3.159842     -0.055116
O       5.91068      0.06065     11.41036        -0.121436     -0.935032     -0.059389
O       5.91549      7.72343      2.67063        -0.453581     -0.615782      0.024860
O       6.02418      7.61555     15.83503        -0.205718      0.263363     -0.494486
O       5.77545      7.58346      7.05484         0.323243      1.015761     -0.087598
O       5.83012      7.66102     11.45695        -0.173792     -1.080601     -0.264685
O       5.74023     11.45788      2.56920         0.485161      1.578399      0.799870
O       5.99536     11.42464     15.78952         0.141528      0.565559     -0.418164
O       5.88547     11.51821      7.11883        -0.092580      0.307477     -0.385025
O       6.11923     11.57611     11.34761        -0.263705     -0.612427      0.367190
O       9.59632      3.82437      2.61978         0.305151      0.965788      0.011160
O       9.88407      3.84517     15.80242        -0.232924     -0.687164     -0.170327
O       9.66149      0.01588      2.58953        -0.127694     -0.255845      0.397129
O       9.82571     15.34193     15.91258        -0.074739      0.554910     -0.585015
O       9.67615      3.81853      7.09400        -0.232948      0.706788     -0.108050
O       9.64793     15.34121      7.01496         0.119541      0.199530      0.181393
O       9.77327      3.87584     11.43993        -0.196626     -1.094269      0.508125
O       9.98486     15.34699     11.42678        -0.496998     -0.044199     -0.012843
O       9.55563      7.74364      2.63239         0.441255     -1.297588      0.145295
O       9.92865      7.69976     15.77835        -0.328409     -0.245921     -0.224538
O       9.66949      7.67147      7.01499         0.431716     -0.394321      0.255538
O       9.85651      7.58471     11.48684         0.067465      1.362614     -0.251456
O       9.54751     11.56507      2.67795         0.397323     -1.013394      0.281237
O       9.88175     11.49925     15.66743        -0.175856     -1.231196      0.131041
O       9.72474     11.50706      7.08822        -0.628921      0.041272     -0.073640
O       9.71265     11.51865     11.42702        -0.292084     -0.537581      0.184814
