  # total energy = -7879.57717835 
CRSYTAL
PRIMVEC
    15.3600000000000000    0.2300000000000000    0.0000000000000000
     0.0000000000000000   15.3600000000000000    0.0000000000000000
     0.0000000000000000    0.0000000000000000    17.440000000000000
PRESSURE
0.643334 0.570377 -4.66293 -0.19731 -0.207173 -1.50627
PRIMCOORD
320 1
Pb       3.79941      3.89359      4.50399        -0.488111      0.050697     -0.785689
Pb       3.86947      3.69968      0.04085        -0.183578      0.226746     -0.434562
Pb       3.94088     15.38435      4.26244        -0.595937      0.204783     -0.048096
Pb       3.91458     15.39647      0.02164        -0.132573     -0.146929     -0.344262
Pb      15.19674      4.11616      4.36669         0.461964      0.258664     -0.265095
Pb      15.32806      4.03610     17.40401         0.036918     -0.179638     -0.309545
Pb       0.06966     15.17499      4.30754        -0.305250      0.316148      0.089086
Pb       0.08087      0.03062     17.37826        -0.462102     -0.059137      0.460504
Pb       3.83116      3.85139      8.74689        -0.614974     -0.505600     -0.472272
Pb       3.89130     15.37344      8.63285        -0.488580      0.477972     -0.328595
Pb      15.30787      3.84114      8.67101         0.158944      0.329505      0.139377
Pb      15.32670     15.57733      8.68901        -0.295710      0.366646      0.119532
Pb       3.61868      3.81032     12.96964         1.086426     -0.004876      0.746421
Pb       3.87392     15.25400     12.98554        -0.043791      0.372508      0.058654
Pb      15.32478      4.07212     13.02437         0.346465      0.009018     -0.212598
Pb      15.34805     15.52804     13.08301         0.308964     -0.026130     -0.220344
Pb       3.73805      7.72415      4.38764        -0.167176      0.262343     -0.504391
Pb       3.86035      7.62203     17.42171        -0.252635      0.348221      0.460226
Pb       0.12413      7.86755      4.39190        -0.030851     -0.443284     -0.277873
Pb      15.35071      7.94229      0.00307        -0.177432     -0.155650      0.070289
Pb       3.87771      7.75765      8.79256        -0.391291      0.381934     -0.495759
Pb       0.13840      7.56265      8.81008        -0.510954      0.719258     -0.321175
Pb       3.74006      7.68804     13.16993         0.493851     -0.437910     -0.691952
Pb      15.33300      7.89950     13.06320        -0.299688     -0.243631     -0.368095
Pb       3.70737     11.71064      4.34876         0.046290     -0.851592      0.277249
Pb       3.72262     11.56313      0.00316         0.433926      0.119766     -0.409809
Pb      15.26663     11.82801      4.33304         0.009438     -0.294920      0.074610
Pb      15.16508     11.68130     17.37413         0.455674      0.212231      0.130236
Pb       4.00015     11.66420      8.74233        -0.360553     -0.575060     -0.512388
Pb       0.10800     11.52282      8.86195        -0.464540     -0.713704     -0.255145
Pb       3.81259     11.55721     13.12932         0.349984      0.233496     -0.530372
Pb      15.34229     11.71948     13.16004        -0.172316      0.273306     -0.358184
Pb       7.75288      3.99801      4.33961         0.123564      0.000535      0.070586
Pb       7.75608      3.79344     17.40520         0.014967      0.501571     -0.520120
Pb       7.82068     15.42347      4.27367        -0.185239      0.146426     -0.418262
Pb       7.61471     15.41985     17.35320         0.145494      0.010559     -0.024736
Pb       7.64730      3.94851      8.70954         0.007110     -0.347933     -0.318662
Pb       7.59267      0.11525      8.60211         0.125240      0.212607     -0.056206
Pb       7.57996      4.00095     13.05274        -0.026515     -0.344739      0.180570
Pb       7.65290      0.29969     12.94021        -0.307126     -0.722330      0.646879
Pb       7.68752      7.79911      4.30071         0.239902      0.014937     -0.075054
Pb       7.54583      7.75336     17.34158         0.604645     -0.012162     -0.129779
Pb       7.60037      7.59583      8.68136         0.181880      0.903100      0.205089
Pb       7.68135      7.76206     13.04032         0.045920     -0.037308      1.123786
Pb       7.63298     11.49753      4.17468        -0.002984      0.032353      0.302482
Pb       7.73470     11.61785     17.35088        -0.601331     -0.052948      0.139825
Pb       7.73227     11.57647      8.60883         0.040883     -0.404466     -0.101909
Pb       7.66526     11.64518     12.95637         0.073872      0.586147      0.471325
Pb      11.53366      3.96910      4.28044        -0.490144     -0.132433      0.303396
Pb      11.60738      4.10153     17.41484        -0.213042      0.074281     -0.223761
Pb      11.50110     15.37833      4.26136         0.099352      0.463682      0.097656
Pb      11.62219      0.24911     17.42249        -0.457387     -0.091696      0.256085
Pb      11.53123      4.13566      8.64449        -0.026341     -0.185995     -0.155453
Pb      11.39614     15.50231      8.70856         0.222940      0.052073     -0.368250
Pb      11.54838      4.17924     13.02645        -0.304181     -0.592780      0.203734
Pb      11.39987      0.18140     13.04642         0.372190     -0.102071     -0.257113
Pb      11.55307      7.77255      4.39302        -0.459920      0.089938     -0.384263
Pb      11.47792      7.88924     17.43020        -0.246167     -0.047932     -0.388649
Pb      11.46532      7.85211      8.76678         0.195175      0.210459     -0.250317
Pb      11.54356      7.91644     13.00056         0.125834      0.021730      0.267673
Pb      11.39421     11.67402      4.45516         0.265659     -0.129216     -0.862748
Pb      11.46846     11.67604      0.02479        -0.134024      0.040335     -0.411281
Pb      11.62465     11.68848      8.69209        -0.201879     -0.222239      0.240194
Pb      11.39260     11.71701     13.07338         0.303500      0.133925     -0.284712
Ti       1.86664      1.96219      2.27583        -0.000991      0.032693     -0.324281
Ti       1.96327      1.87984     15.40980        -0.140799      0.087990     -0.993310
Ti       1.89826     13.47232      2.25047        -0.374735      0.477511     -0.868889
Ti       1.83275     13.43073     15.45399         0.144267     -0.028342     -0.821648
Ti      13.41959      2.05898      2.34873        -0.933762     -0.183714     -0.262105
Ti      13.44636      2.09251     15.27373         1.166054      0.748619      0.175759
Ti      13.40107     13.58928      2.24342        -0.215986     -0.514051     -0.117816
Ti      13.37723     13.72661     15.35314        -0.402419     -1.437689     -1.370573
Ti       1.81871      1.90476      6.60975         0.604955      0.436940      0.015502
Ti       1.83302     13.44450      6.80869         1.069385      0.316560     -1.800447
Ti      13.25626      2.06144      6.61796         0.324396     -0.244845     -0.925041
Ti      13.40578     13.59462      6.81024        -0.359952      0.296536     -1.522160
Ti       1.89268      1.81471     11.03281        -0.059298      0.848019     -1.588992
Ti       1.95821     13.39795     11.01096        -0.569592      0.123773     -0.859885
Ti      13.42584      2.11798     11.07992        -0.302946     -0.252850     -0.749475
Ti      13.42575     13.63661     11.11809         0.412282     -0.194191     -0.996131
Ti       1.89612      5.73956      2.32146        -0.027282      0.473123      0.826422
Ti       1.83377      5.77931     15.39464         0.112443     -1.967968     -1.175857
Ti      13.44286      5.99072      2.41025        -0.354901     -0.276968     -0.427850
Ti      13.41932      5.98313     15.32071        -0.177070     -1.249608     -0.118241
Ti       1.84527      5.77648      6.70449         0.729387     -0.224283     -1.363125
Ti      13.47726      5.96951      6.66900        -0.797650      0.536130     -0.403946
Ti       1.92892      5.70418     10.94729        -0.906728     -0.936590      0.582681
Ti      13.41723      5.94409     10.96096         0.948629     -0.209337     -1.087600
Ti       1.86383      9.69821      2.25071         0.267214     -1.058284     -0.988483
Ti       1.92482      9.55827     15.45261        -0.925859      0.958732      0.088999
Ti      13.37106      9.77710      2.34237        -0.297602      0.454888     -0.534178
Ti      13.36556      9.84208     15.36875         0.079096     -0.461437     -0.950778
Ti       1.89542      9.62283      6.72258         0.092772     -1.513723     -0.251024
Ti      13.45299      9.72469      6.80110         0.629948     -0.205901      0.824433
Ti       1.86099      9.55026     11.12799         0.406126      0.107794     -2.708720
Ti      13.46070      9.82075     10.99640        -0.610898     -0.185161     -1.271370
Ti       5.67776      2.08500      2.35901         0.689975     -1.140934     -0.956375
Ti       5.82171      2.01632     15.39894        -0.702162      0.136792     -0.667933
Ti       5.76564     13.40534      2.29350         0.031780      1.245111     -1.503583
Ti       5.69224     13.54363     15.32830         0.464276     -0.546762     -0.815860
Ti       5.67869      1.97799      6.61839        -0.301816      0.195465     -0.797841
Ti       5.74627     13.45418      6.52109        -0.694296      0.191765     -0.190527
Ti       5.70354      1.96115     11.01001         0.001421      0.773623     -0.402520
Ti       5.78276     13.48287     10.85788        -0.727455      0.509679      1.199770
Ti       5.75244      5.89129      2.40698        -0.627180      0.119757     -0.515973
Ti       5.65006      5.84536     15.42699         1.615902     -0.666183     -1.448501
Ti       5.64920      5.83964      6.65211         0.559021     -0.058627     -1.284866
Ti       5.77152      5.90018     11.15843        -0.908297     -0.923585     -0.249944
Ti       5.68608      9.66692      2.19846         0.164032      0.146896     -0.555814
Ti       5.76858      9.72876     15.34646         0.247828      0.581509     -0.175313
Ti       5.75725      9.64015      6.64090        -0.590249     -0.003498     -1.379463
Ti       5.78488      9.67448     11.13451        -0.379227     -0.312168     -0.434864
Ti       9.58417      2.08324      2.31855         0.492928     -0.352779     -0.632854
Ti       9.72270      2.04460     15.39776        -1.121910      0.574128     -0.426561
Ti       9.58739     13.47495      2.22034         0.016762      0.165845      0.420405
Ti       9.55427     13.56041     15.36234        -0.119177      0.245078     -1.792441
Ti       9.50275      2.02659      6.70243        -0.048502      0.319750     -1.834547
Ti       9.50797     13.49191      6.63470         0.378282      0.898868     -1.387824
Ti       9.58164      2.09767     10.99770        -0.427820      0.449072     -0.913885
Ti       9.57316     13.66842     11.01104        -0.011485     -1.235566     -0.391961
Ti       9.64751      5.92039      2.25326        -0.210385      0.556801     -0.341068
Ti       9.60315      5.98025     15.32275        -0.869372     -0.678072     -0.460736
Ti       9.57313      5.92836      6.66374         0.072068     -0.431150     -1.890898
Ti       9.62002      5.90959     11.13138        -0.324541     -0.215203     -0.940812
Ti       9.60576      9.75358      2.27009        -0.342070     -0.752368     -1.014489
Ti       9.54007      9.79604     15.27134         0.821374     -0.706635      0.349556
Ti       9.58080      9.68998      6.61960        -0.211733     -0.596589     -0.913792
Ti       9.56711      9.70764     11.08743         0.789779      0.531658     -1.345591
O       2.02988      1.99719      0.45227        -0.313327     -0.185750      0.562573
O       1.83493      1.67387     13.59663         0.308496      0.638084      0.855571
O       1.99515     13.50346      0.44077        -0.158075     -0.070996      1.159133
O       1.76222     13.37765     13.62401         0.459512      0.117452      0.518658
O      13.23038      2.06629      0.57857         0.117073      0.016999     -0.391112
O      13.57847      2.03904     13.51014        -0.402189      0.145315      0.159918
O      13.30740     13.50133      0.48114        -0.037763      0.217824     -0.455367
O      13.42413     13.59776     13.48435         0.133978      0.203290      1.369749
O       1.93992      1.88267      4.82557        -0.406392      0.415466      0.590890
O       1.84266     13.39003      4.90361        -0.416997      0.231584      1.642806
O      13.16126      1.86866      4.81564         0.726759      0.672445      0.849897
O      13.53754     13.66568      4.97962        -0.170036     -0.373328      0.984164
O       1.91480      2.05779      9.18215        -0.231091     -0.754717      1.545951
O       1.97513     13.45913      9.19096        -0.024220     -0.408899     -0.495148
O      13.34687      2.17553      9.26610         0.087902     -0.317112      0.643514
O      13.39780     13.60400      9.27379         0.026524      0.246247      0.102013
O       1.90215      5.77295      0.57439        -0.112574     -0.018511     -1.251739
O       1.70035      5.65090     13.56799         0.399217      0.761451      1.228805
O      13.36524      5.97499      0.63727         0.162577     -0.334122     -0.590329
O      13.57279      5.89962     13.52882        -0.548328      0.204751      0.330865
O       1.88708      5.74576      4.81118         0.161114      0.051589      1.671248
O      13.38111      5.97331      4.83264         0.266906      0.211429      0.801340
O       1.94994      5.70362      9.17906         0.109538     -0.002339     -0.114051
O      13.41061      5.80180      9.13931        -0.603218      0.102494      0.669337
O       1.92464      9.63579      0.39304        -0.305584     -0.126977      0.983527
O       1.57052      9.54523     13.64246         1.171484     -0.057074      0.341531
O      13.30299      9.85193      0.51956         0.157736     -0.223287      0.705019
O      13.50311      9.84921     13.53512        -0.107045     -0.362329      1.158827
O       1.93626      9.46619      4.86573        -0.406700      0.460560      0.829607
O      13.52184      9.69233      5.05090        -0.170004      0.020063     -1.107903
O       1.73459      9.43899      9.21397         0.685287      0.630730      2.380923
O      13.46578      9.82377      9.16252        -0.281466      0.260311      1.605236
O       5.83398      2.10597      0.45487        -0.702139     -0.284686      1.432502
O       5.86425      1.92040     13.61529        -0.102195      0.170704      0.103008
O       5.63846     13.47884      0.42380         0.049346      0.061331      1.570104
O       5.78980     13.58911     13.48614        -0.732821     -0.221979      1.541287
O       5.70522      2.02419      4.78200        -0.168907      0.126891      0.842945
O       5.69118     13.27396      4.71986         0.147531      0.638283      0.770782
O       5.79158      1.93471      9.22178        -0.303520      0.053739     -0.020050
O       5.75223     13.53744      9.05647        -0.189497     -0.328354      0.526851
O       5.68782      5.99243      0.60329         0.276491     -0.137371      0.071357
O       5.69199      5.79292     13.63314         0.103625      0.285013      0.115555
O       5.81890      5.83201      4.79533        -0.543716     -0.142384      1.434796
O       5.66682      6.13498      9.39276         0.119451     -0.781581     -0.188072
O       5.65087      9.67359      0.39541        -0.112691     -0.229794      0.401118
O       5.77439      9.77717     13.56351        -0.161206     -0.204134     -0.132712
O       5.69119      9.62813      4.82897         0.109756      0.231864      1.037706
O       5.75575      9.55395      9.36055         0.050968      0.293067     -0.054023
O       9.56502      2.02664      0.48627         0.220819     -0.119936      0.493973
O       9.34096      2.00889     13.65558         1.007187     -0.098259     -0.165381
O       9.48228     13.43692      0.45769         0.406879      0.234457     -0.546410
O       9.44621     13.58126     13.43669         0.641556      0.037702      1.521797
O       9.49055      2.01893      4.82212        -0.219437     -0.146871      1.095834
O       9.51281     13.42386      4.82199         0.036100      0.331543      0.748824
O       9.39259      2.01778      9.19740         0.604118      0.374056      0.309108
O       9.56813     13.49858      9.21354        -0.137940      0.041148      0.262719
O       9.58733      5.99783      0.45392         0.243271     -0.150757      0.624543
O       9.59227      5.86334     13.48217         0.061382      0.170201      0.358678
O       9.47355      5.98304      4.80168         0.203020     -0.274626      1.510291
O       9.74473      5.91332      9.31562        -0.523209     -0.195573      0.257983
O       9.77238      9.83375      0.45906        -0.287401     -0.330084      0.555578
O       9.65479      9.93475     13.48983        -0.188390     -0.676824      0.059929
O       9.51639      9.57922      4.76953         0.218425      0.578576      1.578356
O       9.70300      9.72410      9.26875        -0.608647      0.284789      0.724869
O       3.71602      1.89165      2.65633         1.418936      0.390973      0.034168
O       3.88070      1.94129     15.71518        -0.636572      0.124680      0.443981
O       3.76394     13.37960      2.80927         0.287435      0.572020     -0.898534
O       3.70592     13.45656     15.76238         0.830622      0.003481     -0.402701
O      15.26604      2.09121      2.42163         0.580699      0.097577      0.798081
O      15.33444      2.05366     15.83311        -0.362581      0.283841     -0.012389
O      15.32845     13.75318      2.48389         0.022018     -0.385118      0.804468
O      15.21400     13.78686     15.80977         0.362828     -0.582628     -0.030477
O       3.75057      2.04360      7.07733         0.941388     -0.169725     -0.214976
O       3.79883     13.49601      6.99443         0.049532     -0.760547      0.210634
O      15.24635      2.06038      7.01811         0.402629      0.247654     -0.130186
O      15.30741     13.82809      7.11933         0.823232     -0.654447      0.144237
O       3.78197      2.03108     11.36986         0.341034     -0.693753      0.146628
O       3.80863     13.45135     11.37358         0.745751     -0.075687      0.334531
O       0.00840      1.97822     11.36480        -0.498265     -0.410330     -0.121865
O       0.10606     13.39316     11.29395        -1.392413     -0.489012      0.448630
O       3.77899      5.82693      2.67743         1.026776      0.021519      0.406158
O       3.79229      5.97461     15.69544         0.152961     -0.568677      0.283637
O      15.28447      5.92092      2.74539         0.528490     -0.011003      0.068991
O       0.00283      5.58416     15.80633        -0.725737      0.957867      0.218283
O       3.78758      5.82669      7.05646         0.976749     -0.270141     -0.231940
O      15.34989      5.95767      6.90409        -0.379927      0.299215      0.345045
O       3.74091      5.75193     11.58131         0.912000      0.685155     -0.344284
O      15.25757      5.69368     11.21336         0.940357      0.648146      0.405914
O       3.68241      9.73721      2.58720         1.199726     -0.030549      0.187652
O       3.81350      9.80215     15.69178        -0.865077     -0.854361     -0.431755
O      15.27531      9.81678      2.67457         0.493215     -0.247849      0.015700
O      15.29601      9.79724     15.96678        -0.182275     -0.588251     -0.641277
O       3.81206      9.54298      7.14103         0.304098      0.858654     -0.120349
O      15.33467      9.58713      7.23678         0.709312      0.790971     -0.883712
O       3.88116      9.41944     11.46521        -1.301611      0.203519      0.348109
O      15.33611      9.83235     11.39836         0.421830     -0.080396      0.264452
O       7.65347      2.01155      2.61293        -0.111160      0.160138      0.342298
O       7.66984      2.00945     15.78399         0.688371     -0.134117      0.495843
O       7.67794     13.50855      2.52739        -1.157467     -0.074234      0.499525
O       7.61834     13.49357     15.71984        -0.109554      0.664617      0.232933
O       7.57579      2.01523      7.07653        -0.053148     -0.057506     -0.062013
O       7.56770     13.57856      6.89039         0.680989     -0.200225      0.404566
O       7.62117      2.04553     11.38277         0.764276     -0.029863      0.063269
O       7.57577     13.55568     11.27243         0.821734     -0.197792     -0.255653
O       7.72724      5.84278      2.78696        -0.812262     -0.179694     -0.780576
O       7.69821      5.84357     15.73171        -0.198230      0.161485      0.330754
O       7.65586      5.80919      7.15639        -0.882728      0.091591     -0.128583
O       7.62481      5.75593     11.34574         0.686542     -0.063292      0.342586
O       7.62489      9.73465      2.41070         0.034387     -0.185556      0.633094
O       7.73832      9.76734     15.77802        -1.324008     -0.335485     -0.108525
O       7.65022      9.55284      7.01730         0.099501      1.058809      0.286988
O       7.72014      9.73913     11.44003        -0.978325      0.505573      0.044741
O      11.47157      2.04290      2.69388        -0.703476     -0.537702      0.197501
O      11.63704      1.96565     15.60160        -1.932201      0.505302      0.277563
O      11.48370     13.38893      2.57722        -0.125800     -0.033966      0.464975
O      11.43821     13.45019     15.61349         0.357843      0.135549      0.178579
O      11.36110      2.01512      7.03452         0.877010      0.259048      0.390068
O      11.45180     13.53337      6.96979         0.479039     -0.024174      0.415995
O      11.46231      2.01803     11.47769         0.176842     -0.334885     -0.061361
O      11.51967     13.71293     11.31302        -0.928163     -0.255199      0.424457
O      11.51023      5.85704      2.72731        -0.384406      0.758909      0.225581
O      11.45694      5.88238     15.71593         1.236177      0.474842      0.074062
O      11.44148      5.96859      6.91923         0.427903     -0.278768      0.525991
O      11.52239      6.07167     11.40713        -0.317599     -0.342637      0.455197
O      11.43671      9.85362      2.73865         1.559353     -0.141852      0.323530
O      11.48140      9.62312     15.70197         0.717503      0.914936     -0.123670
O      11.48787      9.72871      7.08504        -0.707524      0.321657     -0.301091
O      11.56461      9.60366     11.39841        -0.825063      0.442097      0.072963
O       1.86519      3.84730      2.68633        -0.086088     -0.529591      0.204937
O       1.88562      3.78542     15.72626         0.339853      0.427283      0.240572
O       1.81521      0.05883      2.76459         0.634863     -0.919036     -0.544306
O       1.82751     15.34675     15.90425         0.653683      0.205198     -0.361377
O      13.30019      3.97863      2.81765         0.897192     -0.180054     -0.251482
O      13.35109      4.01396     15.78048         0.429957     -0.338250     -0.081908
O      13.25448     15.39852      2.63889         0.219002      1.045053      0.089597
O      13.26559     15.52331     15.71959         0.577827      0.115693      0.072642
O       1.86712      3.83138      7.14930        -0.027522      0.365118     -0.753790
O       2.01366      0.05635      7.03767        -0.773186     -0.962582      0.223187
O      13.40410      4.05530      6.90168        -0.294256     -0.517434      0.184635
O      13.37711      0.25536      7.09927        -0.426137     -1.187092      0.561463
O       1.95941      3.78115     11.48408        -0.793807      0.314094     -0.462091
O       1.92664     15.28390     11.29803         0.007855      0.995875      0.376991
O      13.28753      3.98890     11.40807        -0.187205      0.196756      0.144695
O      13.51698     15.50223     11.50698        -0.241562      0.744587     -0.357950
O       1.92741      7.69741      2.60529        -0.594610      0.585157      0.371385
O       1.92368      7.64188     15.70405        -0.671181      1.104741      0.247526
O      13.35027      7.88123      2.59530        -0.093243      0.590198      0.586941
O      13.39814      7.76349     15.62696         0.528281      1.407106      0.533264
O       1.97629      7.69429      7.05139        -0.510901     -1.153304      0.055088
O      13.35939      7.86769      7.29012         0.109187     -1.249978     -0.791723
O       1.80105      7.53688     11.29514        -0.256865      1.326606      0.843834
O      13.45454      7.85437     11.26567         0.620528     -0.294436      0.455851
O       1.77236     11.59794      2.65776         0.043158     -0.373098     -0.043828
O       1.69624     11.55341     15.79498         0.310940     -0.612365     -0.143092
O      13.46517     11.68409      2.91456        -0.260368      0.097165     -0.567395
O      13.38469     11.66649     15.76776         0.282972      0.355880     -0.232501
O       1.83583     11.43628      7.09113        -0.153307      1.765614      0.118518
O      13.54385     11.67382      7.17502        -0.174432      0.901930     -0.288665
O       2.00367     11.44821     11.37245        -0.066775     -0.590860      0.201509
O      13.37711     11.69724     11.37720         0.059225      0.036361      0.096070
O       5.57698      3.91243      2.65461         0.554647      0.405735      0.160319
O       5.74743      3.95931     15.78338        -0.168582     -0.098579      0.197664
O       5.64613     15.41803      2.62904         0.298691     -0.296625      0.019886
O       5.64798     15.43484     15.72261         0.539410     -0.277207      0.485214
O       5.65021      3.90773      7.07399         0.460364      0.638677     -0.121934
O       5.64004     15.43948      6.89314         0.181834     -0.316638      0.099925
O       5.75550      3.86529     11.41452        -0.441918      0.739517     -0.032089
O       5.58200     15.42540     11.32948         0.589526     -0.510895     -0.151718
O       5.75699      7.84336      2.66648        -0.356156     -1.117909      0.118901
O       5.91136      7.84271     15.62979        -1.025705     -0.826045      0.524478
O       5.73177      7.77419      7.00319         0.010080     -1.407726      0.302831
O       5.93702      7.76956     11.60158        -1.042103     -0.437097     -0.163725
O       5.77327     11.55373      2.61179        -0.515424      0.196820      0.008888
O       5.69083     11.62289     15.62076         0.152796      0.352057      0.353255
O       5.76640     11.57757      7.04629        -0.109433     -0.118573      0.183906
O       5.58807     11.60685     11.35014         0.482599     -0.130125     -0.181652
O       9.77312      3.97810      2.59366        -1.325834     -0.303823      0.084940
O       9.72139      3.98697     15.68897        -0.449556     -1.099889      0.421162
O       9.62219     15.32486      2.73008        -0.282267      1.198264     -0.310981
O       9.68756     15.44789     15.68051        -0.507875      0.068401      0.494847
O       9.51746      3.94046      6.99151        -0.096373      0.331031      0.319762
O       9.53669     15.42896      6.98079        -0.259165      0.106081      0.401686
O       9.73249      3.98022     11.44090        -0.515074     -0.009591     -0.183880
O       9.57637      0.18373     11.18176        -0.237220     -0.578893      0.786384
O       9.62898      7.85485      2.59886        -0.023320     -0.711311      0.138128
O       9.60922      7.87709     15.50374        -0.278730     -0.549976      0.549092
O       9.48863      7.79766      6.98361         0.479757     -0.003922      0.390162
O       9.32449      7.78814     11.40634         1.283931      0.133232      0.125937
O       9.53161     11.58910      2.71974        -0.054717      0.676541      0.216968
O       9.43948     11.63677     15.77748         1.173052      0.562063     -0.402309
O       9.50087     11.62826      6.89033        -0.227739     -0.714536      0.673668
O       9.60127     11.62990     11.53693         0.169532      0.701808     -1.112053
