  # total energy = -7881.88725631 
CRSYTAL
PRIMVEC
    15.3600000000000000    0.2300000000000000    0.0000000000000000
     0.0000000000000000   15.3600000000000000    0.0000000000000000
     0.0000000000000000    0.0000000000000000    17.440000000000000
PRESSURE
0.470394 0.418093 -1.51547 -0.332998 -0.050598 -1.55512
PRIMCOORD
320 1
Pb       3.81722      3.75431      4.48018        -0.245537      0.255578     -1.203838
Pb       3.85578      3.97604     17.31938        -0.543652     -0.153150      0.834514
Pb       3.71090     15.38127      4.29898         0.237279     -0.201019     -0.078532
Pb       3.75016      0.11141     17.35552         0.416965     -0.779511     -0.516633
Pb      15.21260      3.91875      4.26564         0.813861      0.095360     -0.044405
Pb      15.24898      4.09866     17.25761         0.759199      0.008396      0.361639
Pb      15.35341     15.52991      4.32368        -0.391006      0.180695     -0.191893
Pb      15.32708     15.58423     17.42173        -0.071282     -0.238801     -0.344097
Pb       3.86922      3.96687      8.78290        -0.261174      0.129007     -0.907072
Pb       3.82615     15.33580      8.77659        -0.676134      0.099011     -0.643653
Pb       0.02924      3.89963      8.76445        -0.028223     -0.265546     -0.535576
Pb      15.35470      0.32523      8.68975         0.333001     -0.357576     -0.656440
Pb       3.87381      3.98120     13.01233        -0.205509     -0.134945      0.314887
Pb       3.87050      0.12331     13.05778         0.084774     -0.175289     -0.080429
Pb       0.06733      3.86178     13.07651        -0.408724     -0.044207     -0.007804
Pb       0.03218      0.00853     13.07459        -0.102645     -0.395771      0.137224
Pb       3.78076      7.69032      4.31835        -0.034521     -0.144881     -0.106048
Pb       3.83311      7.87026     17.35819        -0.002826     -0.273144      0.946889
Pb      15.33600      7.83065      4.21661         0.238721      0.032998      0.458508
Pb       0.03421      7.75113     17.36770        -0.189818     -0.669158      0.287241
Pb       3.71598      7.80294      8.64072         0.612106     -0.408172     -0.256084
Pb      15.32703      8.00702      8.62216        -0.405061     -0.543458     -0.269027
Pb       3.93762      7.93679     13.06560        -0.431728     -0.513139     -0.417726
Pb      15.30344      7.91324     12.99811         0.160133     -0.195732     -0.017412
Pb       3.92219     11.60928      4.43668        -0.418017      0.041890     -0.370140
Pb       3.81822     11.62054     17.37337         0.134343      0.163882      0.140311
Pb      15.31415     11.75931      4.28737         0.165287     -0.140324      0.614605
Pb       0.06961     11.39341     17.43642        -0.215430      0.553201     -0.426950
Pb       3.61221     11.59119      8.67921         0.666243      0.062025     -0.656420
Pb      15.17331     11.64676      8.68947         0.160623      0.746096     -0.220824
Pb       3.83549     11.60491     13.14903         0.067375     -0.165220     -0.881442
Pb       0.03219     11.47216     13.08946        -0.353689      0.105313     -0.324966
Pb       7.56304      3.82397      4.44698         0.369530      0.185309     -0.913042
Pb       7.63506      3.88730     17.43144         0.416342      0.675228      0.317428
Pb       7.48737      0.21555      4.40279         0.367158     -0.193577      0.004489
Pb       7.55700      0.12007     17.40096        -0.076240     -0.966763     -0.351936
Pb       7.67109      4.02805      8.80675         0.302237     -0.088631     -1.131108
Pb       7.55100      0.16405      8.79816         0.490013     -0.256041     -0.499974
Pb       7.71292      3.86802     13.05728         0.187017      0.206176     -0.378714
Pb       7.64672     15.46992     13.08289        -0.059101     -0.201680     -0.629372
Pb       7.68806      7.88162      4.28841        -0.287843     -0.604983     -0.070507
Pb       7.75472      7.88385      0.00810        -0.145037     -0.463296     -0.125645
Pb       7.67868      7.71433      8.65087         0.247378      0.298264     -0.746930
Pb       7.66337      7.65941     13.01321        -0.058735      0.086450     -0.237840
Pb       7.73762     11.61908      4.25782        -0.234129      0.027119      0.299656
Pb       7.79438     11.67521      0.01241        -0.135229      0.230924     -0.274104
Pb       7.51141     11.64278      8.69445         0.549377     -0.019348     -0.345829
Pb       7.67034     11.38222     12.93005         0.016819      1.013287      0.175869
Pb      11.51312      3.92639      4.25146        -0.290125      0.194428     -0.082536
Pb      11.43864      3.90507     17.29362        -0.074869      0.363530      0.430490
Pb      11.38202      0.21926      4.26005         0.852918     -0.224387      0.492498
Pb      11.53323     15.42738     17.42261         0.265322     -0.085378     -0.371153
Pb      11.51183      4.09232      8.69266         0.066317     -0.158827     -0.652739
Pb      11.59319     15.43638      8.74421        -0.033169     -0.304708     -0.515349
Pb      11.60711      3.93466     13.03912        -0.095599     -0.482255     -0.545983
Pb      11.52852     15.33855     13.15595        -0.036519      0.214601     -0.412050
Pb      11.49218      7.80203      4.26513         0.409663      0.261966     -0.158991
Pb      11.61601      7.86655     17.39452        -0.196612     -0.056052      0.251563
Pb      11.41552      7.82670      8.67566         0.144783      0.034405     -0.671192
Pb      11.51801      7.69585     13.04177        -0.241863      0.593953      0.337052
Pb      11.44064     11.83773      4.44830         0.369945     -0.373134     -0.457337
Pb      11.62267     11.54117      0.09490        -0.358945      0.332800     -0.577151
Pb      11.42854     11.60926      8.65778        -0.267963      0.529578     -0.181997
Pb      11.52786     11.54162     13.18932         0.061497      0.289594     -0.610326
Ti       1.95809      1.95685      2.14159        -0.208350      0.437597      1.928250
Ti       1.93026      1.91397     15.38512        -0.719876      0.355743      0.185987
Ti       1.84579     13.45105      2.34636         1.051476     -0.381864     -0.757282
Ti       1.87120     13.39049     15.31698         0.186309      0.165478      2.865355
Ti      13.48883      2.07232      2.23002         0.084133     -1.111896     -0.866885
Ti      13.44673      2.09893     15.33871         0.870315     -0.203151      0.011447
Ti      13.40643     13.56824      2.30640         0.093670      0.921388      0.766079
Ti      13.42964     13.63675     15.40355        -0.087137     -0.983330      0.490822
Ti       1.91049      2.00487      6.68377        -0.804163     -0.775783      0.900140
Ti       1.89361     13.46565      6.66144        -0.163505      0.794551      0.124118
Ti      13.36848      2.17146      6.59352         1.040776     -0.863691     -0.666196
Ti      13.51330     13.68471      6.65522        -0.894297      0.200112     -1.332218
Ti       1.91568      1.94812     11.07424         0.002442     -0.012084     -1.375932
Ti       1.90030     13.47109     10.90721        -0.037612     -0.356635     -0.272772
Ti      13.56374      2.03992     11.03064        -1.500016      0.754117      1.253628
Ti      13.44400     13.60860     11.18724         0.099891     -0.444394     -1.613077
Ti       1.89790      5.73290      2.30618         0.507772     -0.379222      0.104303
Ti       1.88478      5.79946     15.34648        -0.634983     -0.803429      0.295051
Ti      13.45199      5.90554      2.21815        -0.568363      0.651430     -0.169478
Ti      13.36617      5.95318     15.33094         0.803150      0.443974     -0.188337
Ti       1.87447      5.77456      6.67113         1.021473      0.319675     -0.779071
Ti      13.46652      5.97820      6.60023        -1.150590      0.077895      0.266734
Ti       1.90863      5.82280     11.04557        -0.703613      0.499163     -0.575653
Ti      13.36564      5.99178     11.10221         1.512507     -1.257571     -1.431634
Ti       1.94323      9.66200      2.37994         0.674969     -0.629569      0.004691
Ti       1.88383      9.54044     15.34898        -0.082227      0.690340      0.357815
Ti      13.48152      9.78174      2.29020        -0.964031     -0.571380     -0.030336
Ti      13.40176      9.74346     15.38496         0.210325      0.612145      1.089690
Ti       1.85766      9.60974      6.62396         0.961307      0.514058     -1.622018
Ti      13.40757      9.84554      6.50865        -0.446788     -0.742788     -0.384094
Ti       1.87723      9.65597     11.04324         0.313602     -0.468010     -0.261571
Ti      13.39919      9.76939     10.97392         0.014140      0.741887     -0.088947
Ti       5.72934      1.90573      2.22531        -0.167681      1.197535      1.339129
Ti       5.79230      2.04531     15.40894        -0.753103     -1.496649     -0.528498
Ti       5.78868     13.50184      2.37743        -0.872419     -0.201363     -2.016751
Ti       5.75752     13.42311     15.23242        -0.340829      1.331223      1.527293
Ti       5.70892      1.93171      6.80749         0.220429      0.416897     -0.385591
Ti       5.79852     13.50688      6.70925        -0.931532     -0.294329      0.179004
Ti       5.74149      2.00188     11.05750         0.533246     -0.857151     -0.405085
Ti       5.78097     13.46559     10.95918         0.115010      0.115642     -0.500734
Ti       5.81195      5.74441      2.41710        -0.191000     -0.227691     -0.586935
Ti       5.72866      5.95352     15.42840         0.304147     -0.557599     -0.708979
Ti       5.75761      5.80942      6.59445        -0.130096      0.169744      0.817190
Ti       5.67086      5.83058     11.00036         0.569232      0.687099      0.759741
Ti       5.76000      9.63702      2.32051        -1.637735     -0.143535      0.410673
Ti       5.79613      9.71680     15.31353        -0.804936      0.669141      0.687178
Ti       5.69765      9.63195      6.64368         0.088844      0.397347     -0.838374
Ti       5.74121      9.69359     10.93899         0.002374     -0.708837      1.351278
Ti       9.63201      2.00366      2.29702        -0.817446      1.256744      1.548546
Ti       9.60230      1.94574     15.32910         0.107714      0.350561      0.535864
Ti       9.59354     13.57580      2.36439         0.033818     -0.253771      1.322380
Ti       9.56864     13.52559     15.28225         0.395562     -0.661628     -0.396952
Ti       9.62489      1.96054      6.63945        -0.674774      0.734956     -0.288602
Ti       9.60285     13.57684      6.59350         0.050857     -0.320407      1.049014
Ti       9.66075      1.93609     10.99194         0.202880      0.700758     -0.359645
Ti       9.62204     13.52823     11.09294        -0.360523     -0.810873     -0.780748
Ti       9.59733      5.88852      2.36552        -1.213360     -1.240637     -1.006618
Ti       9.61050      5.89989     15.32255        -0.530881     -0.623593      0.253498
Ti       9.65836      5.88514      6.54443        -0.718807     -0.281841      2.366991
Ti       9.63343      5.86682     11.06384        -1.516472     -0.405229      1.104215
Ti       9.60684      9.71256      2.29933         0.886974      0.317065      0.195186
Ti       9.58738      9.69002     15.29867         0.590994      0.912222      1.105586
Ti       9.59245      9.71725      6.53375        -0.395312     -0.122330     -0.273286
Ti       9.61221      9.69345     11.04788        -0.423518      0.252310     -0.663916
O       2.01594      2.06556      0.41876        -0.180229     -0.628868     -0.790737
O       1.92534      2.00251     13.60834         0.132865     -0.281580     -0.250824
O       1.76936     13.32029      0.54402         0.303554      0.148372      0.894752
O       1.92961     13.24180     13.63074        -0.082985      0.376791     -1.777417
O      13.43845      1.90951      0.39454        -0.123064      0.612201      1.264782
O      13.52761      2.15502     13.55461        -0.296481     -0.241929      0.545228
O      13.35258     13.65121      0.54762         0.086845     -0.017706     -0.410731
O      13.44350     13.63347     13.62650        -0.192117     -0.314215     -0.269141
O       1.82078      2.09856      4.92780         0.514934     -0.459982      0.192637
O       1.82715     13.58647      4.87207         0.179316     -0.029653      0.047610
O      13.44945      2.13835      4.74117        -0.171352      0.090511      1.351438
O      13.54006     13.58969      4.83379        -0.286284      0.173541      0.807302
O       1.80874      1.97765      9.25967         0.052811     -0.045606      1.530153
O       1.90415     13.55565      9.11413        -0.417808     -0.750794      1.060392
O      13.56087      1.98450      9.29069        -0.059342      0.334488     -0.085566
O      13.38474     13.73529      9.38712         0.172849     -0.351429      0.204201
O       1.74563      5.73440      0.55082         0.100211     -0.015099      0.203983
O       1.82836      5.72112     13.56549         0.398010      0.217982      0.313778
O      13.37791      6.04962      0.42441         0.229832     -0.406111      1.064050
O      13.40295      5.96763     13.51319        -0.369273      0.032628      0.220936
O       1.94640      5.82237      4.89759        -0.194388     -0.523819      0.424592
O      13.34615      5.81870      4.87131         0.098523      0.241005     -0.540967
O       2.00179      5.82252      9.23766        -0.430706      0.018602      0.686510
O      13.37901      5.95899      9.31079        -0.123928     -0.115279      0.094015
O       1.84002      9.53597      0.58352         0.390454      0.250267      0.046561
O       1.89703      9.65484     13.59465         0.099852     -0.323660     -0.489795
O      13.30899      9.71715      0.46799         0.641522     -0.047659      0.748972
O      13.45916      9.76254     13.66247        -0.480804      0.090511     -1.760785
O       1.95847      9.57152      4.84205        -0.082463      0.059887      0.319189
O      13.40521      9.91962      4.72159        -0.142443     -0.378052      1.180962
O       1.86422      9.64803      9.22943        -0.209839     -0.150811      0.389205
O      13.49326      9.81911      9.17309         0.077393     -0.272935      0.504961
O       5.69999      1.98427      0.46541         0.206191     -0.514327     -0.813435
O       5.85403      1.99918     13.61831        -0.522874     -0.000682     -0.023620
O       5.78483     13.49810      0.50890         0.154361      0.349970      1.813264
O       5.56003     13.36686     13.48452         0.336226      0.203191     -0.328010
O       5.76514      1.90845      5.01636        -0.541659      0.270436      0.256993
O       5.71829     13.61133      4.94472         0.078420     -0.247766     -0.374912
O       5.81082      1.84491      9.26439        -0.066093      0.488517      0.332779
O       5.93973     13.46533      9.07435        -0.418046      0.036287      2.045718
O       5.98569      5.66549      0.62020        -0.329582      0.465736     -0.297363
O       5.63568      5.92090     13.65014        -0.102564     -0.166481      0.455479
O       5.80948      5.66533      4.84163        -0.338280      0.168286     -0.077474
O       5.61188      5.76564      9.25253         0.694871      0.376950      0.284099
O       5.54482      9.56108      0.57549         0.786379      0.381331     -0.178854
O       5.59214      9.80375     13.51463         0.705927     -0.565890      1.436592
O       5.51764      9.81355      4.83506         0.986937     -0.656985      1.132588
O       5.73779      9.59110      9.23692         0.179479      0.343019     -1.582376
O       9.60377      2.12427      0.58060         0.033716     -0.468432     -1.515760
O       9.58346      1.96840     13.59496        -0.107877      0.003651     -0.242470
O       9.58392     13.40291      0.67554        -0.158536      0.724783     -1.873193
O       9.64498     13.48413     13.46492        -0.015939      0.022404      1.054923
O       9.57478      1.99339      4.82594         0.346242     -0.050673      1.001982
O       9.59054     13.49947      4.83353         0.312587      0.116847     -0.149885
O       9.48144      1.88303      9.19748         0.177440      0.405607      0.721296
O       9.75050     13.34004      9.29041        -0.443286      0.697655      0.534885
O       9.51817      5.72143      0.56355        -0.125004      0.415426      0.137714
O       9.64495      5.92221     13.54899         0.075020     -0.247092      0.762442
O       9.76984      5.94019      4.84335        -0.351435     -0.025682     -1.311928
O       9.47464      5.92612      9.32478         0.202271     -0.336767     -0.372891
O       9.58110      9.78940      0.51810        -0.284152     -0.377532     -0.030386
O       9.66067      9.79859     13.51133        -0.096165     -0.243041      0.844962
O       9.61681      9.77387      4.71214         0.006068     -0.279547      0.751519
O       9.62692      9.65245      9.27590        -0.082586      0.028237      0.142931
O       3.87254      2.02370      2.78097        -0.526379     -0.684038     -0.405060
O       3.74480      1.97869     15.76958         1.648925     -0.282573     -0.015873
O       3.84782     13.54858      2.77721        -0.555289      0.059153     -0.167560
O       3.79530     13.41388     15.71275        -0.353601     -0.276042      0.047619
O       0.02664      1.91846      2.61825        -0.493682      0.097422     -0.298139
O       0.02155      1.85829     15.77842        -0.477710      0.174541      0.068918
O      15.34720     13.58457      2.84397         0.099989     -0.098124     -0.857359
O      15.29139     13.58348     15.83504         0.745986     -0.056513     -0.250266
O       3.78116      1.95649      7.19380         0.459974      0.444995     -0.299761
O       3.75435     13.45723      7.03221         0.806792     -0.023525      0.330913
O      15.35499      2.18978      7.08333        -0.633267     -0.102002      0.007235
O      15.32549     13.63890      7.09306         0.321035      0.218754      0.275019
O       3.82458      1.95644     11.45349        -0.069807      0.281343      0.135737
O       3.85211     13.36207     11.04805        -0.361195     -0.106269      0.805770
O       0.07576      1.82437     11.60118        -0.665064     -0.148873     -0.676325
O       0.01152     13.40291     11.49136         0.303348      0.405142     -0.032454
O       3.83865      5.68959      2.59662        -0.407693      0.379850      0.318839
O       3.76117      5.77093     15.84479         0.689431      0.420718     -0.552992
O      15.27453      5.94084      2.76633         0.218571     -0.453492     -0.414682
O      15.23024      6.09597     15.64733         1.497418     -0.405934      0.348784
O       3.85019      5.79569      7.07695        -0.509227     -0.449923     -0.026224
O      15.31617      6.04939      6.98616         0.450297     -0.093312      0.533746
O       3.81449      5.77085     11.44370         0.037704     -0.418096      0.007379
O      15.30166      6.16774     11.31202         0.496881     -0.368637      0.394598
O       3.85931      9.44666      2.76890        -0.688340      0.709420     -0.469184
O       3.81574      9.64305     15.73728         0.443776     -0.112408     -0.143188
O       0.02574      9.73450      2.65421        -0.544518     -0.749051     -0.071758
O      15.32926      9.68453     15.65652         0.556158      0.063559      0.540361
O       3.83807      9.74201      7.09962        -0.418895     -0.397813      0.131979
O      15.34081      9.66743      6.90804        -0.684104      0.659991      0.473873
O       3.87827      9.66982     11.41713        -1.306642      0.118145     -0.163494
O      15.32052      9.78152     11.41179        -0.079070     -0.804847     -0.030687
O       7.57980      1.98817      2.71859         0.812231     -0.553566     -0.182193
O       7.65315      1.81608     15.80345         0.333869      0.820702     -0.245505
O       7.69970     13.51847      2.86142        -0.316878      0.092826     -0.609358
O       7.70938     13.49107     15.71409        -0.764812      0.282023     -0.109326
O       7.62248      1.87132      6.93296         0.587846      0.224418      0.812228
O       7.67031     13.55374      6.99452         0.934284     -0.213877      0.090414
O       7.61475      1.88567     11.43075         0.457504      0.162778      0.112024
O       7.65773     13.53174     11.42243        -0.232180      0.507697     -0.069645
O       7.71012      5.77589      2.83999         0.153479      0.243366      0.311602
O       7.58360      5.95730     15.58347         1.197492     -0.557974      0.509070
O       7.68857      5.96234      7.02405        -0.413614     -0.668454      0.111658
O       7.71394      5.83882     11.64797        -0.832627     -0.080134     -1.006852
O       7.62094      9.76783      2.61129         0.529065      0.008567      0.297754
O       7.67064      9.74725     15.84368         0.025710     -0.159019     -0.722847
O       7.70983      9.55565      6.84193        -0.735031      0.416527      0.472596
O       7.66437      9.54478     11.36468        -0.260369      0.093236      0.365270
O      11.54085      2.00694      2.70247         0.264337      0.016809     -0.353964
O      11.59078      2.05328     15.73139        -1.242683     -0.194842     -0.131648
O      11.57196     13.59292      2.81024        -0.525855      0.408044     -0.195491
O      11.52029     13.56732     15.77132        -0.112930      0.250230     -0.042693
O      11.50720      2.07504      7.07474        -0.063065     -0.005642     -0.084045
O      11.56288     13.58818      7.12904        -0.383453     -0.289538     -0.289814
O      11.57222      2.10355     11.29056        -0.091210     -0.035092      0.188354
O      11.48401     13.46428     11.47673         0.485535      0.031415      0.538281
O      11.44298      6.00942      2.68056         1.495922     -0.422243     -0.116841
O      11.49940      5.86852     15.73517        -0.742865     -0.012780     -0.081460
O      11.50665      5.89083      7.08882         0.250301     -0.029899      0.294729
O      11.44429      5.79884     11.43186         0.873741     -0.045122      0.190154
O      11.48106      9.51669      2.53889         0.391419      0.640761      0.144647
O      11.49213      9.76500     15.82171        -1.108727     -0.046700     -0.521336
O      11.44012      9.58543      7.03698         1.180971      0.974474     -0.324059
O      11.49910      9.86046     11.33660         0.566517      0.137901      0.396451
O       1.89967      3.74117      2.72237        -0.120598      1.306495     -0.046556
O       1.83252      3.85369     15.81151        -0.073160      0.875243     -0.466974
O       1.87336     15.37819      2.58205         0.113522      0.123192      0.108411
O       1.91782     15.30902     15.76481        -0.157278      0.116491     -0.218605
O      13.35470      3.97864      2.56616         0.022339      0.619728     -0.150275
O      13.46695      4.06428     15.75544        -0.320413     -0.637860     -0.357032
O      13.60903     15.50562      2.59026        -0.645151      0.367858      0.213485
O      13.51738     15.53903     15.72330        -0.489869     -0.226447      0.016522
O       1.84227      3.91573      7.14477         0.336191     -0.229303      0.013971
O       1.91629     15.38714      7.17605        -0.166520      0.564643     -0.586591
O      13.36063      3.98225      7.00801         0.266439      0.766539      0.497382
O      13.42167     15.56009      6.95441         0.082534      0.687389      0.460205
O       1.76838      3.85454     11.40014         0.524422      0.280298     -0.017179
O       1.94489     15.29779     11.40232         0.187935      0.520509      0.277042
O      13.53972      4.03643     11.45169        -0.112526     -0.501067     -0.143276
O      13.36683     15.48700     11.56183         0.465607      0.981028      0.035012
O       1.84659      7.63160      2.74464        -0.065674      0.251793     -0.113189
O       1.94001      7.64826     15.94359        -0.206331      0.338443     -1.054805
O      13.50234      7.85761      2.70887        -0.022196     -0.184211     -0.218006
O      13.36636      7.86584     15.76005        -0.475263     -0.466431      0.023219
O       2.05799      7.74149      6.92171        -0.576135     -0.428257      0.921826
O      13.36991      7.87956      6.88606         0.267648      0.206794      0.270459
O       1.95003      7.67454     11.48484         0.116792      0.804722     -0.081772
O      13.22604      7.84800     11.39333         0.332026      1.137589      0.202557
O       1.99323     11.52313      2.76373         0.128425      0.148684     -0.180780
O       1.83144     11.40638     15.84811         0.088217      0.576677     -0.277415
O      13.33949     11.65298      2.64106         0.101518      0.127092     -0.202615
O      13.41747     11.60702     15.86750         0.081990      0.895572     -0.252144
O       1.91248     11.55859      6.90214        -0.500716     -0.671644      0.676550
O      13.52131     11.76038      6.94029        -0.449045     -1.776860      0.480375
O       1.77792     11.47950     11.42932         0.571108      0.567858     -0.332352
O      13.58102     11.68793     11.37837        -0.627653     -0.722804      0.292276
O       5.80555      3.84088      2.73286        -0.110510     -0.385918      0.328432
O       5.68160      3.83937     15.77138         0.584572      1.320152     -0.177498
O       5.72336     15.40620      2.75897         0.146200      0.408500     -0.193810
O       5.66734     15.33588     15.64738         0.102328      0.506866      0.399840
O       5.74873      3.96776      7.22167         0.351079     -1.242876     -0.232511
O       5.64089     15.37145      7.20836         0.323096      0.669780     -0.233193
O       5.78207      3.90946     11.32601        -0.050183     -0.256383      0.428932
O       5.66455     15.37506     11.48177         0.054260      0.010354     -0.132492
O       5.83014      7.68262      2.78128         0.091746      0.593110     -0.139643
O       5.79640      7.86143     15.85891        -0.443852     -0.483312     -0.534214
O       5.64718      7.71244      7.00777         0.203115      0.690551     -0.058772
O       5.66250      7.72828     11.43076         0.421601     -0.246816      0.019886
O       5.63294     11.64078      2.68876         0.441592     -0.873591      0.185157
O       5.68670     11.65075     15.85376         0.416734     -1.780093     -0.553089
O       5.70904     11.58072      7.12267         0.525599     -0.255528     -0.180219
O       5.82578     11.55497     11.42339         0.024844      0.454077     -0.676498
O       9.54117      3.87811      2.76442         0.562657      0.447816      0.071887
O       9.59099      3.89433     15.75297        -0.351558      0.297915     -0.358794
O       9.67142     15.48426      2.68862        -0.464481     -0.199410     -0.209303
O       9.59459     15.39760     15.65273         0.273557      0.760777      0.526843
O       9.56910      3.98359      7.07139        -0.206153     -0.541429      0.106201
O       9.66947     15.43365      6.91851        -0.071972      0.316565      0.280824
O       9.54640      3.84236     11.53767        -0.104287      0.439368     -0.560767
O       9.66002     15.46204     11.49018        -0.138561     -0.200818     -0.160800
O       9.48859      7.80929      2.70162        -0.370893     -0.118578     -0.125067
O       9.63631      7.79522     15.70914        -0.451313      0.262271     -0.021199
O       9.58461      7.73775      7.14217         0.186800      0.528907     -0.359803
O       9.64205      7.76829     11.53199         0.080822     -0.026865     -0.338334
O       9.71555     11.66511      2.64840        -0.379614     -0.786617      0.744875
O       9.56898     11.67421     15.84226         0.277633     -0.881518     -0.611879
O       9.66824     11.59861      6.90080        -0.160152      0.041352      0.296284
O       9.36612     11.59389     11.39453         0.818613     -0.272436      0.020572
