  # total energy = -7882.78733475 
CRSYTAL
PRIMVEC
    15.3600000000000000    0.2300000000000000    0.0000000000000000
     0.0000000000000000   15.3600000000000000    0.0000000000000000
     0.0000000000000000    0.0000000000000000    17.440000000000000
PRESSURE
1.71231 1.4664 -3.39989 0.09884 -0.20646 -1.52322
PRIMCOORD
320 1
Pb       3.74648      3.86436      4.40410         0.213991     -0.118260     -0.027118
Pb       3.86306      3.86533     17.35186        -0.127644     -0.400502      1.295252
Pb       3.79772      0.06393      4.25108        -0.031446     -0.181082      0.656859
Pb       3.81775     15.40888     17.25852         0.140445      0.184931      0.841887
Pb      15.22758      4.06172      4.38921         0.382151      0.077550      0.238530
Pb      15.28859      4.11026     17.31688         0.286592     -0.424808      0.909384
Pb       0.03742     15.34875      4.25465        -0.185588      0.072149      0.443987
Pb       0.04487     15.33765     17.35781         0.208773      0.332087      0.334133
Pb       3.78776      4.01910      8.74743         0.310726     -0.830972      0.163994
Pb       3.77746     15.37117      8.67700         0.187503      0.317114      0.380025
Pb      15.31948      3.95763      8.77223         0.091203      0.336294      0.247139
Pb      15.24535      0.31671      8.72429         0.000056     -0.369171     -0.015678
Pb       3.79018      3.92175     13.04001         0.096281     -0.030186     -0.135964
Pb       3.88810     15.31950     12.95586        -0.080548      0.731531      0.599055
Pb      15.32783      4.04964     13.03664         0.035225      0.444494     -0.185683
Pb      15.33040     15.47045     13.02021        -0.158747      0.523861      0.102446
Pb       3.80835      7.72670      4.26680        -0.288875      0.046186      0.231208
Pb       3.85632      7.63023      0.00145        -0.560807      0.233645      0.346761
Pb       0.08696      7.71221      4.28500        -0.284707     -0.319371     -0.103770
Pb       0.06012      7.54090     17.42685        -0.089875      0.590858     -0.170733
Pb       3.88033      7.82706      8.66066        -0.664235      0.066685      0.256348
Pb       0.04018      7.67379      8.61293        -0.518422      0.567281      0.552356
Pb       3.89644      7.75300     13.12252        -0.278721     -0.180652     -0.193304
Pb      15.31430      7.92297     13.02160         0.143612      0.106830      0.702533
Pb       3.80632     11.62059      4.41129        -0.226200      0.088002     -0.091176
Pb       3.86098     11.52760     17.38864        -0.413120      0.102339      0.701291
Pb      15.31274     11.72074      4.33575         0.218047      0.138993     -0.077762
Pb      15.28642     11.69436     17.31835         0.294793     -0.520042      0.433968
Pb       3.84305     11.60087      8.70328        -0.187294     -0.158456     -0.303926
Pb      15.34274     11.75469      8.70965        -0.025679      0.141232      0.089250
Pb       3.93823     11.58303     13.10145        -0.248879     -0.321044      0.035495
Pb      15.28757     11.76640     13.03869         0.044972     -0.305370      0.461953
Pb       7.69286      3.93301      4.34057        -0.387986     -0.594755      0.144154
Pb       7.69586      3.92529      0.00076        -0.066494     -0.526797      0.667022
Pb       7.70198      0.13278      4.26828        -0.216909      0.183837      0.638290
Pb       7.61449     15.32918     17.38490        -0.144949      0.811704      0.274333
Pb       7.77220      3.93156      8.73740        -0.420853     -0.043696     -0.149290
Pb       7.70821      0.17906      8.66703        -0.076918      0.164745      0.496134
Pb       7.70296      3.97039     13.06150        -0.024630     -0.307162      0.087628
Pb       7.70271      0.16834     12.99254        -0.213863     -0.227175      0.506848
Pb       7.57704      7.79922      4.23019         0.608010     -0.358940      0.529064
Pb       7.65911      7.68027     17.41661         0.527949     -0.022549      0.647044
Pb       7.56050      7.76463      8.62263         0.474229     -0.092949      0.072672
Pb       7.67650      7.68788     13.05025        -0.083336      0.210433     -0.295971
Pb       7.62895     11.55822      4.25826         0.099561      0.908775      0.649032
Pb       7.70203     11.68960     17.43734         0.005159     -0.252071      0.379804
Pb       7.70576     11.62657      8.53212        -0.258176     -0.015985      0.536809
Pb       7.64097     11.51368     12.90389         0.313017      0.130189      0.522035
Pb      11.53658      3.92560      4.17232         0.147538     -0.176034      1.140238
Pb      11.46459      3.97812     17.28337         0.149337     -0.244955      0.755729
Pb      11.39793     15.44656      4.37704         0.467864      0.203072     -0.049731
Pb      11.54799      0.17748     17.33229        -0.179991     -0.496305      0.495054
Pb      11.53091      4.08970      8.65962         0.159615     -0.352573      0.133398
Pb      11.46699     15.49971      8.69282         0.525717      0.634089      0.387674
Pb      11.48357      3.93204     13.02507        -0.258199      0.190454      0.134957
Pb      11.42958     15.47995     13.10090         0.124863      0.210358     -0.130311
Pb      11.62748      7.68842      4.31268        -0.245046      0.352157      0.194929
Pb      11.51748      7.79185     17.42274         0.128761      0.342010      0.005609
Pb      11.42926      7.87087      8.62692         0.505071      0.050365      0.210248
Pb      11.45995      7.80769     13.05107        -0.329672      0.253992      0.352110
Pb      11.40292     11.83582      4.34708         0.384991     -0.195228      0.090673
Pb      11.51635     11.53296      0.10311         0.070873      0.043902     -0.541434
Pb      11.53113     11.68228      8.71680         0.195759     -0.144515      0.107973
Pb      11.48964     11.61147     13.10919        -0.314515     -0.228350     -0.177345
Ti       1.88321      1.92542      2.33647        -0.039786     -0.221542     -1.546481
Ti       1.87328      2.02203     15.35697         0.341178     -0.785898     -0.442457
Ti       1.90758     13.41607      2.24135         0.035206     -0.193444      0.229278
Ti       1.97386     13.40003     15.38048         0.017878      0.347654     -0.689520
Ti      13.47952      2.14316      2.22758         0.061789     -0.741348     -0.986323
Ti      13.39633      2.03567     15.43148         0.157708      0.816263     -0.273019
Ti      13.46697     13.69880      2.31863        -0.783324     -0.399740     -1.414349
Ti      13.52338     13.59535     15.44842        -1.872247     -0.589402     -1.540388
Ti       1.96020      1.91504      6.76943        -0.165127      0.685417     -0.957263
Ti       1.86637     13.55204      6.71254         0.022000     -1.554377     -1.470302
Ti      13.47145      2.18488      6.74082         0.067301     -0.579575     -0.247572
Ti      13.41621     13.62571      6.70355         0.784941      0.872445     -0.696754
Ti       1.87962      1.95134     11.12625         0.603216      0.430075     -1.158178
Ti       1.83346     13.44365     11.11609         0.251515      0.704986     -2.033494
Ti      13.44113      2.10306     11.13381        -1.533768      0.388109     -2.035216
Ti      13.35504     13.61789     11.09948         0.100755     -0.093349     -1.898599
Ti       1.90845      5.69092      2.35913        -1.091987      0.048884     -1.857255
Ti       1.99421      5.71986     15.46551        -0.865919      1.551183      0.246997
Ti      13.39850      5.90312      2.24618         1.130505      0.731227     -0.562447
Ti      13.42732      5.91654     15.41599        -0.350972      0.671419      0.059258
Ti       1.91468      5.77501      6.79156        -0.608720     -0.158563     -1.062375
Ti      13.50281      5.99037      6.80988        -1.096457     -0.338235     -1.052525
Ti       1.82468      5.88309     11.04064         0.376860      0.014758      0.574458
Ti      13.28328      5.96977     11.07507         0.737465     -0.036309     -0.970381
Ti       1.89613      9.65985      2.33007         0.041924     -0.358685     -0.309467
Ti       1.99964      9.58200     15.40112        -1.821142     -0.258125     -0.312103
Ti      13.37936      9.82297      2.34016         0.339661     -0.005689     -0.698605
Ti      13.38069      9.73990     15.37948         0.256425     -0.239329      0.066634
Ti       1.91419      9.69907      6.74469        -0.437167      0.078437     -1.158312
Ti      13.39132      9.85542      6.58158         0.672511     -0.429232     -0.042909
Ti       1.88069      9.67627     11.10656         0.413812     -0.638570     -2.108282
Ti      13.39741      9.75543     11.14022        -0.667879      0.111268     -1.094979
Ti       5.71525      1.98704      2.37819         0.927085     -0.395727     -1.299210
Ti       5.71769      2.01917     15.37696         0.344002     -0.866142     -0.636309
Ti       5.72872     13.55242      2.36386        -0.081390      0.504714     -1.323542
Ti       5.76350     13.44645     15.42926         0.304462      0.677093     -0.933202
Ti       5.77967      2.06638      6.78747         0.296410     -0.278586     -0.846481
Ti       5.77391     13.65393      6.71786        -0.333131     -1.030726     -0.782056
Ti       5.72217      2.00654     11.03540        -0.039354      0.184041     -0.990376
Ti       5.75818     13.50256     11.05282         0.348576      0.298852     -0.047905
Ti       5.75473      5.78662      2.30965        -0.517223     -1.329098     -0.098685
Ti       5.74254      5.75384     15.47293         0.795739      0.072812     -2.048647
Ti       5.72194      5.82137      6.70916         0.289455     -0.650529     -1.458504
Ti       5.68381      5.79431     11.02863         0.487282     -0.120610     -1.042948
Ti       5.72614      9.64244      2.40996        -0.684793      0.732332     -0.666269
Ti       5.75646      9.54404     15.53244        -0.823219      0.716864     -2.119391
Ti       5.74701      9.68591      6.64337        -0.566206      0.686528     -0.853447
Ti       5.65947      9.61225     11.01172         0.184762      0.305078     -0.547215
Ti       9.63546      2.04186      2.28976        -1.053794     -0.360810     -1.833671
Ti       9.52767      2.02999     15.44425        -0.437637     -0.504973     -1.280298
Ti       9.57219     13.62221      2.29455        -0.308157     -0.200960     -0.840811
Ti       9.63951     13.55436     15.46320         0.258856     -0.208243     -0.600840
Ti       9.64682      2.11253      6.68176         0.155950      0.135067     -0.774446
Ti       9.63490     13.66554      6.82802        -0.088464     -0.651779     -2.167444
Ti       9.55246      2.09017     11.06450         0.602483     -0.384901     -1.153356
Ti       9.57525     13.57824     11.04904        -0.196340     -0.309696     -1.227297
Ti       9.55234      5.82893      2.44384        -0.196684      0.434106     -1.514143
Ti       9.57037      5.81877     15.50919         0.045091      1.018051     -2.094022
Ti       9.57497      5.94293      6.61250         0.292372     -0.989165     -1.326410
Ti       9.49554      5.88750     11.01960         0.741010     -0.289581     -0.364640
Ti       9.59856      9.71558      2.41837         0.482023      0.103027     -0.953140
Ti       9.48924      9.69156     15.49043         1.678531     -0.216022     -1.368694
Ti       9.62540      9.75159      6.70842        -0.083184      0.178392     -0.533449
Ti       9.53766      9.65619     10.96685         0.243193      0.617013     -1.234082
O       1.83572      1.91972      0.53397         0.081953     -0.142368      0.880659
O       1.97749      2.13576     13.54608        -0.450557     -0.357474      1.034467
O       1.81894     13.30110      0.47268         0.153913      0.450772      0.259667
O       2.02613     13.40460     13.56226        -0.414975      0.304707      0.845493
O      13.52182      2.10808      0.41354        -0.198095     -0.064685      0.794109
O      13.23990      2.07734     13.66898         0.613513      0.023427      0.123112
O      13.46276     13.63890      0.48676        -0.076656     -0.004628      0.676066
O      13.36508     13.54599     13.59405         0.299413      0.425064      1.025567
O       1.91376      1.82583      4.96195        -0.016123      0.471788      0.919116
O       1.90695     13.40413      4.88851        -0.130550      0.416432      1.078342
O      13.54443      2.32051      4.99012         0.001523     -0.133314     -0.572868
O      13.35599     13.63174      4.91594        -0.009571     -0.082509      0.163928
O       1.83273      2.04136      9.31596         0.107245     -0.552798      0.878849
O       1.70778     13.54204      9.28101         0.719034     -0.357234      1.618370
O      13.38970      2.08127      9.27367         0.420871      0.053862      1.180613
O      13.36993     13.57518      9.22258         0.042253      0.341252      1.754366
O       1.82428      5.71835      0.50440         0.349881      0.213208      1.590253
O       2.05924      5.77562     13.73935        -0.171286     -0.242665     -0.868540
O      13.43967      5.97076      0.44916        -0.042290     -0.211953      0.893869
O      13.28566      6.03783     13.68601         0.267503     -0.494731     -0.699540
O       1.90596      5.71401      4.99767         0.250951      0.160555      0.018580
O      13.40917      5.74477      5.04598         0.042815      0.465850     -0.271003
O       1.75866      5.94959      9.29215         0.384403     -0.420774     -0.017130
O      13.46094      6.01885      9.29879        -0.347351      0.128131      0.163464
O       1.89283      9.58642      0.56735        -0.056936      0.160682     -0.071000
O       1.90303      9.58115     13.61782         0.461455      0.115502      0.561546
O      13.38576      9.73456      0.49320         0.162968      0.384234      1.391578
O      13.21556      9.75174     13.54619         0.315028      0.113031      1.331582
O       1.92989      9.80927      4.87404        -0.233139     -0.688966      1.861813
O      13.43963     10.00745      4.77747        -0.083934     -0.728333      1.112507
O       2.08194      9.70876      9.18065        -0.679954     -0.109103      2.066031
O      13.36495      9.80645      9.37884        -0.201925     -0.055690      0.332398
O       5.83455      1.89946      0.58626        -0.493616      0.188860      0.339351
O       5.68558      2.01788     13.60207        -0.001156      0.127133      0.713643
O       5.83667     13.63650      0.52208        -0.223614     -0.473509      1.059136
O       5.83879     13.50224     13.61403        -0.596234     -0.467564      0.736623
O       5.83538      1.98080      5.00325        -0.208262      0.192136      0.094051
O       5.64550     13.58286      4.95545         0.393786      0.136292      0.377943
O       5.78620      2.13004      9.23837         0.026149     -0.461804      0.784232
O       5.86779     13.56012      9.31221        -0.456097     -0.271178      0.045719
O       5.67122      5.59212      0.54170         0.557651      1.066200      0.432326
O       5.68904      5.78296     13.63525         0.347965      0.119382      0.591752
O       5.65970      5.73978      4.88019        -0.039760      0.380476      0.787136
O       5.82678      5.70989      9.20170        -0.417268      0.568391      0.998534
O       5.78460      9.56035      0.65021        -0.286819      0.334145     -0.117218
O       5.58943      9.58574     13.64933         0.549428      0.009925      2.023471
O       5.60235      9.80501      4.82546         0.730151     -0.717094      0.706885
O       5.60944      9.72455      9.21579         0.129868     -0.409471      0.476671
O       9.43563      2.10340      0.44137         0.659697     -0.327219      0.984720
O       9.53125      2.11110     13.57949         0.268244     -0.376208      1.246324
O       9.45533     13.60194      0.47041         0.479435     -0.217050      1.009722
O       9.56323     13.60443     13.67745         0.216567     -0.348465     -0.083007
O       9.65440      2.04514      4.87008        -0.075094      0.148359      0.919864
O       9.77459     13.70836      4.96882        -0.232893     -0.168812      0.939563
O       9.56633      1.99528      9.24571         0.078520      0.499381      0.780215
O       9.64510     13.64316      9.20831        -0.176120     -0.275001      0.990415
O       9.29184      5.82380      0.61045         1.297181      0.097259      0.939790
O       9.51583      5.80758     13.66190        -0.158103      0.284875      0.691134
O       9.66771      5.72891      4.75736        -0.287951      0.673887      1.254872
O       9.43528      5.89701      9.26538         0.228401     -0.046954     -0.608082
O       9.54431      9.74704      0.63640         0.005988     -0.235738      0.279605
O       9.64915      9.67163     13.65157        -0.665432     -0.048119      1.340817
O       9.73656      9.82151      4.95234        -0.419753     -0.157364     -0.217918
O       9.53040      9.64323      9.08469         0.035328      0.070341      1.585802
O       3.81170      1.96890      2.74811         0.045488      0.198174      0.009666
O       3.75011      2.03218     15.80865         0.808716      0.031933     -0.244561
O       3.80763     13.55516      2.65288        -0.153107     -0.309854     -0.179666
O       3.83721     13.44175     15.90907        -0.319448     -0.184142     -0.567679
O       0.01395      1.89087      2.70887        -0.731312     -0.445777      0.195429
O      15.35586      2.09921     15.76692        -0.215292      0.352178     -0.513587
O      15.30421     13.66303      2.60583         0.685708      0.049778      0.455381
O       0.03311     13.26638     15.65851         0.062958      0.551039      0.167267
O       3.91008      2.00448      7.11142        -1.632138     -0.424971      0.283849
O       3.83841     13.58199      7.08745        -0.040413     -0.304254      0.381989
O       0.04066      1.97859      7.21905         0.168853     -0.058596     -0.245768
O       0.00140     13.41034      7.01489        -0.929535     -0.043608      0.265606
O       3.82645      1.83108     11.34416        -0.577937      0.473378      0.291447
O       3.79480     13.57049     11.40814         0.272201     -0.557937     -0.323931
O      15.26631      2.10531     11.51989         1.069044      0.514831      0.369983
O      15.24695     13.69531     11.43947         0.697798      0.142219      0.495212
O       3.78286      5.66126      2.63912         0.465521      0.315376      0.433569
O       3.91789      5.72928     15.86657        -1.039588     -0.119190      0.104036
O      15.32569      5.98611      2.70872         0.091872      0.211938      0.118039
O      15.34940      5.97492     15.76399        -0.005021     -0.073758     -0.201187
O       3.76026      5.75994      7.16568         0.857027      0.536208     -0.046628
O      15.32896      6.01997      7.12725         0.808904     -0.134926      0.159670
O       3.83886      5.92799     11.39354        -0.628551     -0.602273     -0.134897
O      15.34236      6.11417     11.62435        -0.030136     -0.677607     -0.571185
O       3.83872      9.67575      2.80039         0.246079     -0.278677     -0.380467
O       3.80694      9.56037     16.00182         1.140301      0.019950     -0.437677
O       0.00913      9.54536      2.80923        -0.740236      0.427482     -0.434204
O       0.00074      9.50834     15.74144        -0.437955      0.266072     -0.074692
O       3.79970      9.59643      7.06271         0.198853      0.655838     -0.091124
O      15.30407      9.88639      7.23862         0.043181      0.049974     -1.122263
O       3.72754      9.63378     11.46902         0.925064      0.384204      0.124696
O      15.27907      9.82061     11.44164         0.711096     -0.240277      0.242393
O       7.72458      1.93760      2.75639        -0.415152      0.312179      0.122357
O       7.62089      1.92856     15.67355         0.102503      0.093712      0.083197
O       7.67092     13.66552      2.74467         0.121790     -0.492551     -0.040580
O       7.65408     13.49230     15.83249        -0.320804     -0.117294     -0.200796
O       7.70941      2.00877      7.14534         0.214595      0.252966     -0.197603
O       7.75345     13.59111      7.00364        -1.034663      0.017747      0.397297
O       7.63425      2.04956     11.45572         0.324892      0.008737     -0.024111
O       7.67284     13.41455     11.43257        -0.008504      0.376814     -0.018292
O       7.67199      5.94797      2.69749        -0.623712     -0.234270      0.564346
O       7.70090      5.90184     15.86673        -0.895032     -0.200219     -0.184436
O       7.63978      5.87408      6.94464        -0.000191      0.156909      0.205667
O       7.65580      5.87523     11.32794        -1.173671     -0.275847      1.015041
O       7.67358      9.79772      2.74281        -0.766020     -0.874948      0.448398
O       7.63176      9.59051     15.89584        -0.632346      0.027121     -0.342044
O       7.60928      9.66181      6.98902         0.429316      0.053273     -0.038417
O       7.58921      9.55421     11.35913         0.444055      0.795561      0.240546
O      11.54210      2.07817      2.51555         0.047785      0.625890      0.294887
O      11.46139      2.09706     15.77427         0.401766     -0.433190      0.241839
O      11.46166     13.62509      2.78249         0.025762      0.193824     -0.592318
O      11.53537     13.63493     15.76259        -0.090330     -0.387525      0.267841
O      11.59828      2.21813      6.97936        -1.707099     -0.354849      0.509208
O      11.54865     13.69052      7.12135        -0.272109     -0.215579      0.198968
O      11.52522      2.14799     11.39224        -0.890488     -0.180816      0.483053
O      11.47773     13.67500     11.37600        -0.218737     -0.483990      0.424222
O      11.51459      5.85558      2.67103        -0.039494      0.011808     -0.139761
O      11.45238      5.80899     15.78941         0.426765      0.247051      0.435753
O      11.50614      5.99505      7.05121        -0.817270     -0.339449      0.412075
O      11.41663      5.78211     11.30361         0.250270      0.591788      0.409319
O      11.53276      9.72842      2.60842        -0.337078      0.326440      0.368254
O      11.42759      9.68178     15.94851         0.799918      0.449157     -0.328205
O      11.54763      9.79123      7.15101        -0.641113     -0.265302     -0.329174
O      11.39868      9.72108     11.46463         0.278187      0.076315     -0.209550
O       1.79150      3.76061      2.75342         0.655604      1.363967      0.120234
O       1.91332      3.91435     15.95718        -0.195751     -1.476623     -0.902763
O       1.88945     15.31518      2.76422        -0.168895      0.163810     -0.505511
O       1.95727      0.03368     15.77956        -0.444916     -0.381894     -0.522994
O      13.56465      4.02981      2.73174        -0.795538      0.143251     -0.536937
O      13.36926      4.01201     15.86676         0.396700     -0.511242     -0.699090
O      13.38864      0.27799      2.59222         0.346254     -0.801958      0.432883
O      13.47931     15.47350     15.83095        -0.066734      0.776708     -0.322635
O       1.93898      3.85060      7.22771        -0.255440      0.197817     -0.364513
O       1.83832     15.38342      7.08839         0.329202      0.691720      0.445974
O      13.45143      4.06023      7.26815         0.157211      0.557464      0.049676
O      13.52548      0.27091      6.94679        -0.300002     -0.852690      0.667289
O       1.85944      3.90918     11.48089         0.027041      0.387343     -0.161808
O       1.80519      0.08764     11.44469        -0.014691     -1.228558      0.406821
O      13.42383      4.09533     11.42782         0.512264     -0.484249      0.517473
O      13.36052      0.26908     11.53290         0.221095     -1.670999      0.059599
O       1.89413      7.71019      2.66572         0.451438     -0.929315      0.624678
O       2.03894      7.64009     15.83489        -0.297787      0.204373      0.200857
O      13.39529      7.82285      2.74258         0.184707      0.029123      0.023288
O      13.40035      7.83918     15.79417        -0.340294      0.281826      0.009370
O       1.87201      7.73390      7.07019         0.065622      0.108937     -0.091588
O      13.40475      7.94018      6.96592         0.126992      0.033063      0.110644
O       1.90763      7.80664     11.49158        -0.395203     -0.937644     -0.086507
O      13.28245      7.83806     11.55015         0.403680      0.179806     -0.216257
O       1.92988     11.48814      2.75011        -0.222689      1.552805     -0.341564
O       1.96624     11.49680     15.74135         0.222157      0.014520      0.114395
O      13.36526     11.78035      2.67151         0.257227     -0.747489     -0.247409
O      13.34082     11.66883     15.81018         0.223663     -0.317151     -0.080570
O       1.85929     11.61261      7.18042         0.687363     -0.571840     -0.200063
O      13.32136     11.71543      7.09101         0.365637      0.128261     -0.032430
O       1.79159     11.57700     11.52824         0.348030     -0.040624     -0.415087
O      13.47735     11.70516     11.51030        -0.930264      0.507848     -0.167824
O       5.88387      3.85935      2.68350        -0.320041      0.893329      0.398665
O       5.81425      3.92399     15.84132        -0.128734     -1.370514     -0.265632
O       5.73557      0.10042      2.83321        -0.041254     -0.272106     -0.100453
O       5.60777     15.38339     15.71063         0.373934      0.451477      0.034593
O       5.69579      3.93490      7.05146         0.239761      0.457957      0.285122
O       5.74262      0.10108      7.29356         0.209363     -0.079592     -0.587057
O       5.67767      3.86679     11.44264        -0.003634      1.177625      0.056643
O       5.81628      0.10894     11.53690        -0.071071     -1.214226     -0.559453
O       5.73466      7.68285      2.66656        -0.217433      0.723639      0.374019
O       5.69780      7.62328     15.76208         0.098282      1.601847      0.628536
O       5.65765      7.75012      7.02335         0.202397      0.036784      0.047237
O       5.73078      7.76871     11.39671        -0.179666     -0.818950      0.118114
O       5.72864     11.71754      2.80924         0.254879     -1.064991     -0.457036
O       5.61307     11.52699     15.85158         0.863311     -0.387530     -0.339292
O       5.77169     11.57644      7.12073        -0.315800      0.528789     -0.209427
O       5.66954     11.50479     11.51010         0.176570      0.937321     -0.411538
O       9.50750      3.90626      2.69461         0.222638      0.926602      0.003794
O       9.52877      3.92660     15.79140        -0.083607     -0.197443      0.161284
O       9.59924      0.16688      2.69363         0.420236     -0.569423      0.016300
O       9.63021     15.42022     15.78527        -0.277740      1.103664     -0.020663
O       9.52044      4.00339      7.08924         0.422740      0.078635     -0.082015
O       9.61341      0.19579      7.10983         0.367343      0.124479      0.015633
O       9.56112      3.91781     11.48482        -0.436860      0.897960     -0.209169
O       9.55404      0.14388     11.35839        -0.068796     -0.640223      0.536752
O       9.61902      7.84688      2.86145        -0.240060     -0.698897     -0.162579
O       9.68853      7.75109     15.91229        -0.984859      0.216649     -0.075419
O       9.51929      7.78032      6.95173         0.236934      0.474888      0.253767
O       9.52354      7.77864     11.29313         0.272078     -0.026886      0.728592
O       9.50569     11.69021      2.70037         0.463874      0.206508      0.177671
O       9.52416     11.54625     15.90163         0.185026      0.778344     -0.208957
O       9.57478     11.66313      7.07214         0.271939      0.146750      0.075514
O       9.57130     11.55788     11.42510        -0.146725      0.831444     -0.219918
