  # total energy = -7877.52491300 
CRSYTAL
PRIMVEC
    15.3600000000000000    0.2300000000000000    0.0000000000000000
     0.0000000000000000   15.3600000000000000    0.0000000000000000
     0.0000000000000000    0.0000000000000000    17.440000000000000
PRESSURE
1.55974 1.67712 0.868685 -0.125221 0.079136 -1.5422
PRIMCOORD
320 1
Pb       3.84212      3.84594      4.25941        -0.402461      0.134738     -0.096240
Pb       3.72597      3.95922     17.33614         0.376512     -0.341102     -0.141066
Pb       3.70199     15.41136      4.52729        -0.141832     -0.372049     -0.805022
Pb       3.69518     15.32951     17.39644         0.449181      0.131676     -0.409228
Pb       0.13433      3.76528      4.24826        -0.438619     -0.029350     -0.032731
Pb       0.01274      3.72336     17.28535        -0.143762      0.419056      0.288719
Pb      15.27370      0.33349      4.43073        -0.074753     -0.600210     -0.783933
Pb      15.26548     15.49266     17.31411         0.574479      0.037350     -0.103675
Pb       3.85010      3.95702      8.66582        -0.004454      0.021140     -0.761597
Pb       3.70049      0.17797      8.85318         0.457870     -0.366724     -0.392271
Pb       0.08472      4.22453      8.84136        -0.372287     -1.009781     -0.429194
Pb       0.04836     15.31370      8.73914        -0.493743      0.253427      0.322031
Pb       4.07101      4.00890     13.04791        -0.986201     -0.234127      0.190125
Pb       3.82523      0.20756     13.12762         0.061603     -0.577129     -0.497298
Pb      15.32892      4.12556     13.01952         0.407789      0.242685     -0.174947
Pb      15.30725      0.29424     13.10413         0.713180     -0.380695     -0.266006
Pb       3.89762      7.73532      4.36877        -0.236833      0.084802     -0.404072
Pb       3.78883      7.80323     17.42598         0.075905      0.143580     -0.778080
Pb      15.18253      7.69534      4.30138         0.657047      0.213356     -0.215642
Pb      15.35462      7.88486     17.32705         0.284571     -0.668763      0.060529
Pb       3.68701      7.72844      8.54682         0.480506      0.100337     -0.204318
Pb      15.16184      8.07685      8.67703        -0.124560     -0.379129     -0.714510
Pb       3.91298      7.79707     12.90628        -0.838263      0.099937      0.673651
Pb       0.00149      7.70827     13.05301         0.049217     -0.269512     -0.421784
Pb       3.88675     11.52372      4.24523        -0.568546      0.160889     -0.385871
Pb       3.82654     11.59088     17.42154         0.503535     -0.437513     -0.680734
Pb       0.03314     11.53059      4.26155         0.394815      0.265083     -0.245988
Pb       0.18029     11.48316      0.07885        -0.218670      0.155379     -0.723394
Pb       3.61195     11.55156      8.61586         0.474928      0.077247     -0.079512
Pb      15.22195     11.77395      8.51845         0.382815      0.061738      0.080203
Pb       3.88599     11.49514     12.95582        -0.126730      0.193632     -0.059355
Pb       0.00949     11.38458     13.06403        -0.312353      0.217072     -0.538749
Pb       7.53452      3.75264      4.35371         0.378755      0.528317      0.016760
Pb       7.51361      3.99095     17.43582         0.294960     -0.482310      0.083802
Pb       7.42461     15.47055      4.42580         0.519833      0.301471     -0.201042
Pb       7.67606      0.17900     17.42861        -0.201149     -0.249904     -0.066811
Pb       7.63951      4.01937      8.61801         0.198507     -0.458821     -0.021597
Pb       7.70565      0.14005      8.77992         0.080511     -0.093386     -0.271152
Pb       7.71180      3.85022     13.02023        -0.170928      0.282815     -0.448277
Pb       7.63833     15.21975     13.18883         0.196777      0.043051     -0.804264
Pb       7.69850      7.65672      4.44500        -0.308261      0.491788     -0.722004
Pb       7.76846      7.78351      0.23212         0.347031      0.191329     -0.621696
Pb       7.79841      7.93197      8.59022        -0.195262     -0.158003     -0.600469
Pb       7.59279      7.81290     13.03008         0.835076     -0.648138     -0.023157
Pb       7.68801     11.88268      4.50455         0.083201     -0.557657     -0.834515
Pb       7.66278     11.53101      0.12229         0.351405      0.215590     -0.906397
Pb       7.57623     11.74470      8.80333         0.061569      0.159979     -0.667160
Pb       7.73531     11.55055     13.21539         0.276533      0.520880     -0.571310
Pb      11.52138      3.98984      4.39930        -0.071835      0.197064     -0.813583
Pb      11.42128      3.85766      0.03427         0.119597      0.478039     -0.454219
Pb      11.58478      0.28022      4.30228        -0.235847     -0.419091      0.067756
Pb      11.38329     15.29502      0.07063         0.026417      0.442548     -0.798883
Pb      11.50535      3.96954      8.78250        -0.104675     -0.248579     -0.441323
Pb      11.62026      0.18633      8.77143        -0.444624      0.305131     -0.434302
Pb      11.45708      3.87612     13.11120         0.251069      0.098623     -0.675303
Pb      11.57542     15.33520     13.03804        -0.541461      0.117955     -0.226541
Pb      11.44429      7.88176      4.23931         0.068768     -0.222841     -0.513400
Pb      11.55784      7.69822      0.03612        -0.368227     -0.237143     -0.313203
Pb      11.51497      7.84843      8.56204         0.181856      0.300901     -0.332965
Pb      11.40210      7.71782     13.14306        -0.124666      0.051275     -0.665824
Pb      11.66809     11.65044      4.21650        -0.603934      0.284839      0.106882
Pb      11.57745     11.56141      0.01051        -0.380065      0.312645     -0.764384
Pb      11.39417     11.66651      8.56537        -0.002398     -0.066731     -0.546171
Pb      11.52265     11.54136     13.05919        -0.127543      0.364842     -0.159377
Ti       1.80791      1.86017      2.12156         0.495577      0.442072      0.399920
Ti       1.95564      1.87756     15.37868        -0.782436      0.389957      0.524145
Ti       1.84188     13.47537      2.26869         0.563708     -0.308121      2.292756
Ti       2.03239     13.40704     15.23680        -1.125332     -0.289411     -0.149712
Ti      13.33663      2.13735      2.16754         0.475219     -0.296772     -0.451232
Ti      13.39131      2.01836     15.44473        -0.167997      0.137454      1.141366
Ti      13.36440     13.62049      2.23936         0.694063      0.149965      1.959081
Ti      13.52367     13.54209     15.38646        -0.228615     -0.141933      0.171790
Ti       1.78395      1.96702      6.83136         0.525768      1.461349      0.657456
Ti       1.86692     13.57193      6.71524         0.098174     -0.920511     -0.021423
Ti      13.43273      2.10932      6.71685        -0.503822      0.406360      0.432246
Ti      13.44204     13.71115      6.60894        -1.199936     -0.761430     -0.874956
Ti       2.01914      2.05406     10.97603        -0.739210     -0.762546      0.531932
Ti       1.88488     13.48894     10.95866         0.973463      0.011662      1.621272
Ti      13.47177      2.05542     11.09501        -0.556602      0.565343     -1.891310
Ti      13.50587     13.61839     10.93159        -0.148720     -1.088096      0.241090
Ti       1.96491      5.68163      2.30201        -0.884147      0.707055     -0.148794
Ti       1.99663      5.73108     15.40868        -0.457631      0.020072     -1.018167
Ti      13.41364      5.88078      2.27614        -0.736960     -0.609019     -0.472049
Ti      13.47501      5.87918     15.36065        -0.555997      0.193284      1.893373
Ti       1.91515      5.74579      6.58731        -0.110566      0.303360     -0.795577
Ti      13.36305      5.83459      6.61227         0.973502      0.692145      0.753662
Ti       1.94159      5.83880     11.03756        -0.984316     -0.822212      1.479473
Ti      13.31723      5.86484     10.98161         0.927588      1.615147      0.861093
Ti       1.90975      9.50747      2.31677         0.545011      0.519117      0.584941
Ti       1.85288      9.61757     15.39476         1.988010     -1.153642      0.023816
Ti      13.52487      9.75685      2.21278        -0.769413     -0.118066      1.450817
Ti      13.47139      9.75450     15.42162        -0.301744      0.193878     -0.530453
Ti       1.89539      9.62873      6.58214        -0.188749     -0.050011     -1.003018
Ti      13.48524      9.88951      6.47672        -1.039218     -1.737285      2.068340
Ti       1.83803      9.61033     10.81811         0.671255      0.316961      0.309553
Ti      13.33452      9.79789     10.93082         0.419831     -1.191509     -0.326923
Ti       5.65740      2.06114      2.24201        -0.135480     -0.492187     -1.364503
Ti       5.80188      2.03801     15.39124        -0.537557     -0.434911      1.044752
Ti       5.65055     13.64440      2.30820        -0.289928     -0.833178     -0.779835
Ti       5.85122     13.54665     15.44019        -1.061604     -0.585626      0.500430
Ti       5.72975      1.95013      6.80743        -0.317543      0.370653      1.079393
Ti       5.66196     13.51387      6.69063         0.032107     -0.040694      1.199701
Ti       5.75636      1.94563     10.95570         0.898434     -0.549326      0.448471
Ti       5.71245     13.44764     11.07005         0.424539      0.598171      0.934916
Ti       5.72302      5.85332      2.24549         0.251050      0.180053      1.882071
Ti       5.91856      5.91471     15.39851        -1.940444     -0.535225      0.426675
Ti       5.82072      5.89524      6.65354        -0.998655     -0.493861      0.246699
Ti       5.75309      5.79671     11.03271         0.518292      0.030338     -0.249794
Ti       5.78546      9.68204      2.31489        -0.034208     -0.074113      1.241500
Ti       5.81632      9.65929     15.38270        -0.422719      0.018492      1.037915
Ti       5.70667      9.71276      6.56431         1.002149      0.186345     -0.511886
Ti       5.78863      9.63083     10.99044        -0.909862      1.242264     -0.445804
Ti       9.48262      2.05339      2.35874         0.296263      0.202691      0.039479
Ti       9.56302      2.04433     15.28981         0.119929     -0.819745      0.974489
Ti       9.53337     13.69250      2.37872        -0.073594     -1.154405     -0.519987
Ti       9.59175     13.59667     15.48268         0.472500     -1.633487     -1.695965
Ti       9.57713      1.99608      6.66260        -0.338162      0.178289      0.619978
Ti       9.56647     13.61755      6.57908         0.400340     -0.519465      1.326550
Ti       9.54820      1.93630     11.12292         0.370763      0.280313     -0.851668
Ti       9.64714     13.50600     10.97068        -1.094494     -0.532782      0.853152
Ti       9.50288      5.85608      2.40669         1.404183      0.228352     -0.012900
Ti       9.60373      5.83957     15.47214         0.879258      1.699166     -1.307660
Ti       9.62135      5.82176      6.57416        -0.384639      0.292024      0.392669
Ti       9.59685      5.77340     10.96510        -0.308305      1.234267      0.725601
Ti       9.60978      9.85865      2.32914        -0.265998     -0.770910      0.524629
Ti       9.69986      9.69523     15.38005        -1.561715      0.297604      1.118356
Ti       9.61536      9.76025      6.49733         0.289160      0.490242      1.354138
Ti       9.55141      9.71176     10.98342         1.173484     -0.293237      0.510361
O       1.80428      1.86553      0.38868         0.394416      0.024322     -0.958522
O       1.93184      1.90269     13.62749        -0.105673     -0.261319     -0.847748
O       1.93716     13.44551      0.56536         0.164437     -0.330198     -2.086915
O       2.04895     13.47827     13.46267        -0.460622     -0.198659     -0.205983
O      13.36688      2.09023      0.33587        -0.482823      0.159147      0.886553
O      13.52266      1.90030     13.72538        -0.145594     -0.165450     -2.464437
O      13.34485     13.58816      0.54123         0.322379      0.075899     -1.907452
O      13.65760     13.58726     13.63901        -0.245848      0.192981     -1.543130
O       1.78286      1.87283      5.09369         0.166192      0.014032     -1.720616
O       1.78132     13.64842      4.99069         0.026156      0.488100     -1.536264
O      13.55100      2.11616      4.98868        -0.144348     -0.077613     -1.638745
O      13.57050     13.75850      4.83848        -0.253985     -0.154095     -0.422975
O       2.01424      2.01019      9.19343         0.188052      0.155173     -0.147676
O       1.86523     13.50223      9.24143         0.200784      0.029930     -2.733839
O      13.18867      2.05059      9.30505         0.220867      0.141069      0.042504
O      13.47285     13.58166      9.16672        -0.429894      0.036169     -0.545831
O       1.99452      5.65363      0.55457        -0.034717      0.143206     -0.763665
O       1.94632      5.75752     13.64259        -0.423713     -0.158756     -0.839038
O      13.27854      5.71250      0.51417        -0.046259      0.476351      0.120285
O      13.46299      5.92278     13.65225        -0.007651      0.372803     -2.041754
O       1.99601      5.53552      4.80837        -0.525928      0.404886     -0.692955
O      13.40678      5.75089      4.87227         0.358291      0.426976     -0.797643
O       1.77306      5.75100      9.31661         0.594867      0.365008     -2.063681
O      13.31409      5.88919      9.22098         0.144396     -0.428439     -0.828733
O       1.97962      9.59179      0.54027         0.222956      0.096002     -1.142369
O       1.81222      9.46478     13.64941        -0.193756      0.289513     -0.706055
O      13.33547      9.78062      0.50655         0.059358     -0.056515     -1.750769
O      13.62102      9.83340     13.63737        -0.140363     -0.217257     -0.208374
O       1.78043      9.65847      4.79117         0.317298     -0.131760      0.307055
O      13.49561      9.78410      4.76932         0.349539     -0.027649     -1.819857
O       1.97909      9.55369      8.99027        -0.250152      0.006940      0.871381
O      13.37107      9.71490      9.11257         0.119195      0.405151      0.434784
O       5.79182      2.05699      0.46316         0.087478     -0.323853      0.013827
O       5.79779      2.09787     13.66508        -0.090414     -0.107960     -1.311059
O       5.66202     13.67237      0.50824        -0.222515     -0.182546      0.512296
O       5.79316     13.52151     13.69606         0.237687     -0.179196     -1.463488
O       5.87853      1.93780      5.06097        -0.209803      0.296646     -1.504821
O       5.63740     13.53829      4.95545         0.622926      0.053354     -1.983574
O       5.80098      1.89643      9.18957        -0.732366      0.214360     -0.601022
O       5.79341     13.40804      9.36275         0.040787     -0.120263     -2.482407
O       5.88373      5.95567      0.56268        -0.264580     -0.287633     -2.774954
O       5.87914      5.85493     13.66518        -0.096253      0.006815     -2.222657
O       5.82704      5.86039      4.91173        -0.041755      0.001740     -1.200614
O       5.77131      5.82763      9.32486         0.054284      0.055638     -1.509320
O       5.72338      9.57972      0.56846         0.141103      0.067434     -1.081878
O       5.70884      9.61479     13.64135         0.281335      0.071639     -1.481076
O       5.75443      9.62930      4.75606        -0.231275      0.155446      0.572329
O       5.54121      9.62080      9.25934         0.639344      0.213440     -0.408759
O       9.48193      1.97652      0.61566         0.235864      0.037001     -1.172900
O       9.49579      2.02936     13.52763         0.125607      0.234090     -0.091739
O       9.48787     13.57279      0.59164         0.340002      0.522878     -0.814846
O       9.40292     13.49826     13.64333         0.416074      0.424073      0.443495
O       9.33083      2.04444      4.93988         0.024307     -0.204782     -1.079775
O       9.55917     13.60676      4.84553        -0.758786     -0.229460     -1.735214
O       9.67702      1.91860      9.33370         0.118137     -0.170123     -0.471820
O       9.59779     13.33679      9.19719         0.192757      0.529900      0.062653
O       9.64972      6.02151      0.65256        -0.191004     -0.588192     -1.762191
O       9.57588      6.05050     13.67090         0.324472     -0.714642      0.239023
O       9.59253      5.83235      4.80819        -0.398984      0.272495     -0.378869
O       9.72917      5.87755      9.23182        -0.324780      0.031065     -1.103152
O       9.58152      9.73076      0.56251        -0.012263      0.392502     -0.820752
O       9.68732      9.71221     13.64194        -0.175707     -0.017898     -1.499292
O       9.71973      9.75968      4.78595        -0.633646      0.145324     -1.795090
O       9.70230      9.65112      9.23087        -0.129301      0.282978     -0.789209
O       3.76875      2.05583      2.45374         0.115288     -0.337084      0.797664
O       3.77015      1.96656     15.74300         1.184946     -0.314725      0.170877
O       3.74177     13.53448      2.82947         0.720926      0.369393      0.067617
O       3.82415     13.48596     15.75588         0.479858     -0.216729      0.501924
O      15.28013      2.23191      2.39248        -0.550563     -0.330682      0.898668
O       0.02181      1.82266     15.77379        -0.726709      0.236506      0.047386
O       0.01326     13.42664      2.65456        -0.974631     -0.052985     -0.057073
O       0.06893     13.26386     15.72565         0.320195      0.149325      0.606727
O       3.75858      2.08908      7.12662         1.225944     -0.520781      0.101354
O       3.73981     13.54328      6.88060         0.707816      0.006134      0.965754
O      15.27572      2.18403      7.06478         0.520581     -0.267348      0.877418
O      15.28519     13.65054      6.99705         0.515883      0.521892      0.908376
O       3.91954      1.95302     11.51861        -0.884673     -0.151095     -0.266996
O       3.85121     13.44032     11.22809        -0.870318     -0.055381      0.778269
O       0.09438      1.92242     11.19865        -1.153982     -0.126264      0.881706
O       0.01468     13.44726     11.12566        -1.048816      0.035529      1.144154
O       3.82748      5.58228      2.58983         0.409691      0.858089      0.627579
O       3.83754      5.67462     15.65233         1.132479      0.152917      0.762802
O      15.31014      5.97528      2.48109         0.182689     -0.491000      1.061491
O      15.30781      5.96383     15.86542         0.303808     -0.573445     -0.133942
O       3.80851      5.80377      6.88533         0.942799      0.026417      1.067440
O       0.02367      5.68341      7.00145        -1.100124      0.270308      0.180776
O       3.78856      5.86104     11.29918         1.839725     -0.293129      0.621281
O      15.31890      5.86532     11.37949        -0.218915      0.156515      0.152449
O       3.78170      9.42976      2.74003         0.930101      0.944269      0.077493
O       3.83812      9.58369     15.69868        -0.265344     -0.304547      0.798086
O       0.01873      9.61469      2.35627        -0.534872     -0.160668      0.971947
O       0.00339      9.55058     15.75032         0.007547      0.004957      0.903459
O       3.81950      9.69999      6.95566        -0.065958     -0.264475      0.032187
O       0.05141      9.60530      6.94233        -0.995730     -0.161883      0.560843
O       3.78717      9.71892     11.40096        -0.123449     -0.789927      0.016881
O      15.35554      9.61442     11.28932        -0.032191      0.375825     -0.068609
O       7.59574      2.08845      2.67070        -0.221612     -0.764866      0.580055
O       7.68256      1.85875     15.75311         0.441319      0.842980      0.068259
O       7.56517     13.58840      2.60607        -0.036816     -0.221893      0.947258
O       7.68506     13.54228     15.77343        -0.218683      0.027839      0.625971
O       7.65477      1.95237      7.28867        -0.036602      0.218619     -0.394732
O       7.60888     13.47800      7.10290         0.235141     -0.058642     -0.232535
O       7.65150      2.07727     11.28842        -0.238087     -0.006321      0.626580
O       7.70712     13.41998     11.30948         0.451073      0.357612      0.621468
O       7.64107      5.79842      2.51998        -0.257892      0.265792      1.055952
O       7.71670      5.82606     15.71241         0.657128      0.099741      1.068562
O       7.68421      5.86208      6.99605         0.798211      0.441351      0.503000
O       7.71038      5.80838     11.39520        -0.689836      0.213625      0.211964
O       7.68463      9.78892      2.62886        -0.209012     -0.166915      0.139377
O       7.72351      9.75395     15.63549        -0.480418     -0.110414      0.692866
O       7.66471      9.68895      6.86478         0.008433      0.186003      0.469603
O       7.71085      9.89592     11.23991        -0.968828     -0.958363      0.354267
O      11.41247      2.03460      2.77248         1.132124      0.417917     -0.222169
O      11.43832      1.90912     15.70850         0.329180      0.497653      0.108814
O      11.48080     13.58197      2.55591         0.793350      0.170419      0.556449
O      11.54309     13.56225     15.69707        -0.082398      0.389739      0.610185
O      11.45253      1.96714      6.81599         0.258319      0.012998      0.901978
O      11.43574     13.50879      6.80080         1.531246      0.473591      0.944459
O      11.43645      2.00002     11.47297         1.532822      0.340979      0.946829
O      11.56562     13.50375     11.42885        -0.052074      0.491469      0.017098
O      11.45891      5.89402      2.77700         0.715130      0.083836      0.221074
O      11.54599      5.98283     15.86077        -0.752406     -0.432436     -0.132406
O      11.48286      5.80696      6.93756         0.026984      0.608417      0.272068
O      11.50183      5.79676     11.44256        -0.412708     -0.056221      0.494332
O      11.53293      9.81413      2.71119         0.233804     -0.223264     -0.078425
O      11.54671      9.77649     15.65201         0.731681     -0.017962      0.674003
O      11.55354      9.74942      6.83281         0.257451     -0.020293      0.470595
O      11.53960      9.80772     11.46979        -0.261451     -0.139909     -0.045994
O       1.85998      3.79273      2.60791        -0.042755     -0.263764      0.649248
O       1.87099      3.83012     15.78868        -0.148964     -0.786944      0.211940
O       1.88529      0.04291      2.53276         0.007939      0.216174      0.744440
O       1.87902     15.22291     15.64202        -0.020370      1.527718      0.469816
O      13.28898      3.97577      2.67863         0.170526     -0.374054      0.080134
O      13.24422      3.98404     15.43378         0.556872     -1.010443      1.141983
O      13.37612      0.23401      2.66274         0.204406     -0.021508     -0.126940
O      13.59262     15.40831     15.74392        -0.722369      1.092890      0.306602
O       1.92342      3.94051      7.01155        -0.124177     -1.186072      1.095945
O       1.90423      0.10295      7.22331        -0.225964     -0.451073      0.185600
O      13.30330      3.97874      7.06686         0.131123      0.398150      0.369943
O      13.45258     15.52513      6.97150        -0.255413      0.564033      0.902055
O       2.06786      3.86702     11.38049        -0.360974      0.000354      0.242459
O       1.90629     15.37384     11.23259         0.553392      0.698380      0.535763
O      13.44748      3.94402     11.46434        -0.462733      0.038721      0.342090
O      13.34350     15.52596     11.16519         0.431389     -0.495690      1.280407
O       1.88701      7.66330      2.60505        -0.103050     -1.203161      0.621687
O       1.91814      7.53421     15.77045        -0.315370      2.218981      0.878371
O      13.46441      7.79698      2.69942        -0.399862      0.725904     -0.080956
O      13.48821      7.83531     15.82400        -0.315086      0.679547     -0.036356
O       1.96980      7.68724      6.80704        -0.125860      0.423959      0.521867
O      13.48165      7.86331      6.97761        -0.058419     -0.481949     -0.060921
O       1.96986      7.64422     11.39093        -0.323303      1.632403     -0.037245
O      13.24429      7.82256     11.17001         0.643774     -0.358750      0.663730
O       1.98024     11.52619      2.67262        -0.276085      0.063598      0.153137
O       1.93240     11.45472     15.69305         0.107957      0.662433      0.435887
O      13.49017     11.65287      2.55301        -0.248502      0.964811      0.549034
O      13.44742     11.70166     15.72644        -0.005836     -1.398569      0.843457
O       1.83967     11.66386      6.90383         0.251096     -1.307034      0.777740
O      13.49527     11.70612      6.83785        -0.085935      0.491490      0.441953
O       1.84808     11.47173     11.12799        -0.146595     -0.465918      0.533259
O      13.50197     11.64083     11.32234         0.338939      0.563990      0.281844
O       5.74122      3.90795      2.53662         0.223113      0.067882      0.907998
O       5.82079      3.92391     15.69683         0.169392     -0.095655      0.792254
O       5.69402      0.12841      2.76900        -0.229894      0.260121      0.163150
O       5.79675     15.43375     15.64922        -0.536402      0.375412      0.544218
O       5.84925      3.96536      7.00673        -0.339634     -0.518506      0.650454
O       5.68148     15.40758      6.98619         0.095471      0.384154      0.606896
O       5.69495      3.85990     11.29693         0.151243      1.023180      0.615628
O       5.78523     15.43738     11.37673         0.000277     -0.287298      0.482525
O       5.74661      7.72720      2.67241         0.146069     -0.407925      0.492378
O       5.80787      7.70956     15.72522        -0.090461      0.880768      0.587393
O       5.83104      7.78843      6.91778        -0.556826      0.277098      0.607371
O       5.74220      7.76903     11.33435         0.490235     -0.193538      0.630077
O       5.59864     11.58275      2.51066        -0.039819      0.569635      0.541038
O       5.70974     11.55182     15.75042         0.162373      0.430598      0.664882
O       5.71628     11.61078      6.93640        -0.114390     -0.569717      0.481993
O       5.71684     11.57272     11.49687         0.195439     -0.674525      0.255083
O       9.58961      3.93435      2.61117        -0.050000      0.073295      0.555179
O       9.53052      3.96444     15.70307         0.465742     -1.077675      0.251252
O       9.65361     15.50412      2.70895        -0.552189      0.241677      0.380501
O       9.63122     15.45362     15.74631        -0.448342      0.736528      0.441598
O       9.54125      3.94843      6.90662        -0.037111     -0.064492      0.770108
O       9.52406     15.43912      7.00960        -0.060091      0.367628      0.479470
O       9.60787      3.94004     11.29594         0.029790     -0.231427      0.823390
O       9.58120     15.46024     11.50379         0.025445     -1.531352     -0.114226
O       9.60339      7.82155      2.55347        -0.307012      0.540456      1.294836
O       9.59820      7.81444     15.72789         0.080665     -0.134969      0.855208
O       9.59280      7.83730      6.89312        -0.036041     -0.706214      0.434153
O       9.59198      7.82178     11.36950         0.028819     -0.122048      0.394032
O       9.60306     11.75444      2.59929        -0.192139     -0.689097      0.830535
O       9.58341     11.69195     15.70624         0.170979     -0.828408      0.939219
O       9.69644     11.63495      6.92460        -0.967684     -0.206626      0.238655
O       9.66003     11.62231     11.44250         0.128396      0.175712      0.159570
